
---------- Begin Simulation Statistics ----------
sim_seconds                                  0.000045                       # Number of seconds simulated
sim_ticks                                    44949000                       # Number of ticks simulated
final_tick                                   44949000                       # Number of ticks from beginning of simulation (restored from checkpoints and never reset)
sim_freq                                 1000000000000                       # Frequency of simulated ticks
host_inst_rate                                 215514                       # Simulator instruction rate (inst/s)
host_op_rate                                   224147                       # Simulator op (including micro ops) rate (op/s)
host_tick_rate                               14308556                       # Simulator tick rate (ticks/s)
host_mem_usage                                 733968                       # Number of bytes of host memory used
host_seconds                                     3.14                       # Real time elapsed on the host
sim_insts                                      677009                       # Number of instructions simulated
sim_ops                                        704134                       # Number of ops (including micro ops) simulated
system.voltage_domain.voltage                       1                       # Voltage in Volts
system.clk_domain.clock                          1000                       # Clock period in ticks
system.mem_ctrls.bytes_read::cpu00.inst         38080                       # Number of bytes read from this memory
system.mem_ctrls.bytes_read::cpu00.data         28352                       # Number of bytes read from this memory
system.mem_ctrls.bytes_read::cpu01.inst          3328                       # Number of bytes read from this memory
system.mem_ctrls.bytes_read::cpu01.data          1152                       # Number of bytes read from this memory
system.mem_ctrls.bytes_read::cpu02.inst          3328                       # Number of bytes read from this memory
system.mem_ctrls.bytes_read::cpu02.data          1152                       # Number of bytes read from this memory
system.mem_ctrls.bytes_read::cpu03.inst          3264                       # Number of bytes read from this memory
system.mem_ctrls.bytes_read::cpu03.data          1088                       # Number of bytes read from this memory
system.mem_ctrls.bytes_read::cpu04.inst          3328                       # Number of bytes read from this memory
system.mem_ctrls.bytes_read::cpu04.data          1152                       # Number of bytes read from this memory
system.mem_ctrls.bytes_read::cpu05.inst          3264                       # Number of bytes read from this memory
system.mem_ctrls.bytes_read::cpu05.data          1152                       # Number of bytes read from this memory
system.mem_ctrls.bytes_read::cpu06.inst          3328                       # Number of bytes read from this memory
system.mem_ctrls.bytes_read::cpu06.data          1152                       # Number of bytes read from this memory
system.mem_ctrls.bytes_read::cpu07.inst          3264                       # Number of bytes read from this memory
system.mem_ctrls.bytes_read::cpu07.data          1088                       # Number of bytes read from this memory
system.mem_ctrls.bytes_read::cpu08.inst          3328                       # Number of bytes read from this memory
system.mem_ctrls.bytes_read::cpu08.data          1152                       # Number of bytes read from this memory
system.mem_ctrls.bytes_read::cpu09.inst          3264                       # Number of bytes read from this memory
system.mem_ctrls.bytes_read::cpu09.data          1088                       # Number of bytes read from this memory
system.mem_ctrls.bytes_read::cpu10.inst          3264                       # Number of bytes read from this memory
system.mem_ctrls.bytes_read::cpu10.data          1152                       # Number of bytes read from this memory
system.mem_ctrls.bytes_read::cpu11.inst          3392                       # Number of bytes read from this memory
system.mem_ctrls.bytes_read::cpu11.data          1088                       # Number of bytes read from this memory
system.mem_ctrls.bytes_read::cpu12.inst          3520                       # Number of bytes read from this memory
system.mem_ctrls.bytes_read::cpu12.data          1216                       # Number of bytes read from this memory
system.mem_ctrls.bytes_read::cpu13.inst          3264                       # Number of bytes read from this memory
system.mem_ctrls.bytes_read::cpu13.data          1088                       # Number of bytes read from this memory
system.mem_ctrls.bytes_read::cpu14.inst          3584                       # Number of bytes read from this memory
system.mem_ctrls.bytes_read::cpu14.data          1152                       # Number of bytes read from this memory
system.mem_ctrls.bytes_read::cpu15.inst          3200                       # Number of bytes read from this memory
system.mem_ctrls.bytes_read::cpu15.data          1152                       # Number of bytes read from this memory
system.mem_ctrls.bytes_read::total             133376                       # Number of bytes read from this memory
system.mem_ctrls.bytes_inst_read::cpu00.inst        38080                       # Number of instructions bytes read from this memory
system.mem_ctrls.bytes_inst_read::cpu01.inst         3328                       # Number of instructions bytes read from this memory
system.mem_ctrls.bytes_inst_read::cpu02.inst         3328                       # Number of instructions bytes read from this memory
system.mem_ctrls.bytes_inst_read::cpu03.inst         3264                       # Number of instructions bytes read from this memory
system.mem_ctrls.bytes_inst_read::cpu04.inst         3328                       # Number of instructions bytes read from this memory
system.mem_ctrls.bytes_inst_read::cpu05.inst         3264                       # Number of instructions bytes read from this memory
system.mem_ctrls.bytes_inst_read::cpu06.inst         3328                       # Number of instructions bytes read from this memory
system.mem_ctrls.bytes_inst_read::cpu07.inst         3264                       # Number of instructions bytes read from this memory
system.mem_ctrls.bytes_inst_read::cpu08.inst         3328                       # Number of instructions bytes read from this memory
system.mem_ctrls.bytes_inst_read::cpu09.inst         3264                       # Number of instructions bytes read from this memory
system.mem_ctrls.bytes_inst_read::cpu10.inst         3264                       # Number of instructions bytes read from this memory
system.mem_ctrls.bytes_inst_read::cpu11.inst         3392                       # Number of instructions bytes read from this memory
system.mem_ctrls.bytes_inst_read::cpu12.inst         3520                       # Number of instructions bytes read from this memory
system.mem_ctrls.bytes_inst_read::cpu13.inst         3264                       # Number of instructions bytes read from this memory
system.mem_ctrls.bytes_inst_read::cpu14.inst         3584                       # Number of instructions bytes read from this memory
system.mem_ctrls.bytes_inst_read::cpu15.inst         3200                       # Number of instructions bytes read from this memory
system.mem_ctrls.bytes_inst_read::total         88000                       # Number of instructions bytes read from this memory
system.mem_ctrls.bytes_written::writebacks         1600                       # Number of bytes written to this memory
system.mem_ctrls.bytes_written::total            1600                       # Number of bytes written to this memory
system.mem_ctrls.num_reads::cpu00.inst            595                       # Number of read requests responded to by this memory
system.mem_ctrls.num_reads::cpu00.data            443                       # Number of read requests responded to by this memory
system.mem_ctrls.num_reads::cpu01.inst             52                       # Number of read requests responded to by this memory
system.mem_ctrls.num_reads::cpu01.data             18                       # Number of read requests responded to by this memory
system.mem_ctrls.num_reads::cpu02.inst             52                       # Number of read requests responded to by this memory
system.mem_ctrls.num_reads::cpu02.data             18                       # Number of read requests responded to by this memory
system.mem_ctrls.num_reads::cpu03.inst             51                       # Number of read requests responded to by this memory
system.mem_ctrls.num_reads::cpu03.data             17                       # Number of read requests responded to by this memory
system.mem_ctrls.num_reads::cpu04.inst             52                       # Number of read requests responded to by this memory
system.mem_ctrls.num_reads::cpu04.data             18                       # Number of read requests responded to by this memory
system.mem_ctrls.num_reads::cpu05.inst             51                       # Number of read requests responded to by this memory
system.mem_ctrls.num_reads::cpu05.data             18                       # Number of read requests responded to by this memory
system.mem_ctrls.num_reads::cpu06.inst             52                       # Number of read requests responded to by this memory
system.mem_ctrls.num_reads::cpu06.data             18                       # Number of read requests responded to by this memory
system.mem_ctrls.num_reads::cpu07.inst             51                       # Number of read requests responded to by this memory
system.mem_ctrls.num_reads::cpu07.data             17                       # Number of read requests responded to by this memory
system.mem_ctrls.num_reads::cpu08.inst             52                       # Number of read requests responded to by this memory
system.mem_ctrls.num_reads::cpu08.data             18                       # Number of read requests responded to by this memory
system.mem_ctrls.num_reads::cpu09.inst             51                       # Number of read requests responded to by this memory
system.mem_ctrls.num_reads::cpu09.data             17                       # Number of read requests responded to by this memory
system.mem_ctrls.num_reads::cpu10.inst             51                       # Number of read requests responded to by this memory
system.mem_ctrls.num_reads::cpu10.data             18                       # Number of read requests responded to by this memory
system.mem_ctrls.num_reads::cpu11.inst             53                       # Number of read requests responded to by this memory
system.mem_ctrls.num_reads::cpu11.data             17                       # Number of read requests responded to by this memory
system.mem_ctrls.num_reads::cpu12.inst             55                       # Number of read requests responded to by this memory
system.mem_ctrls.num_reads::cpu12.data             19                       # Number of read requests responded to by this memory
system.mem_ctrls.num_reads::cpu13.inst             51                       # Number of read requests responded to by this memory
system.mem_ctrls.num_reads::cpu13.data             17                       # Number of read requests responded to by this memory
system.mem_ctrls.num_reads::cpu14.inst             56                       # Number of read requests responded to by this memory
system.mem_ctrls.num_reads::cpu14.data             18                       # Number of read requests responded to by this memory
system.mem_ctrls.num_reads::cpu15.inst             50                       # Number of read requests responded to by this memory
system.mem_ctrls.num_reads::cpu15.data             18                       # Number of read requests responded to by this memory
system.mem_ctrls.num_reads::total                2084                       # Number of read requests responded to by this memory
system.mem_ctrls.num_writes::writebacks            25                       # Number of write requests responded to by this memory
system.mem_ctrls.num_writes::total                 25                       # Number of write requests responded to by this memory
system.mem_ctrls.bw_read::cpu00.inst        847182362                       # Total read bandwidth from this memory (bytes/s)
system.mem_ctrls.bw_read::cpu00.data        630759305                       # Total read bandwidth from this memory (bytes/s)
system.mem_ctrls.bw_read::cpu01.inst         74039467                       # Total read bandwidth from this memory (bytes/s)
system.mem_ctrls.bw_read::cpu01.data         25629046                       # Total read bandwidth from this memory (bytes/s)
system.mem_ctrls.bw_read::cpu02.inst         74039467                       # Total read bandwidth from this memory (bytes/s)
system.mem_ctrls.bw_read::cpu02.data         25629046                       # Total read bandwidth from this memory (bytes/s)
system.mem_ctrls.bw_read::cpu03.inst         72615631                       # Total read bandwidth from this memory (bytes/s)
system.mem_ctrls.bw_read::cpu03.data         24205210                       # Total read bandwidth from this memory (bytes/s)
system.mem_ctrls.bw_read::cpu04.inst         74039467                       # Total read bandwidth from this memory (bytes/s)
system.mem_ctrls.bw_read::cpu04.data         25629046                       # Total read bandwidth from this memory (bytes/s)
system.mem_ctrls.bw_read::cpu05.inst         72615631                       # Total read bandwidth from this memory (bytes/s)
system.mem_ctrls.bw_read::cpu05.data         25629046                       # Total read bandwidth from this memory (bytes/s)
system.mem_ctrls.bw_read::cpu06.inst         74039467                       # Total read bandwidth from this memory (bytes/s)
system.mem_ctrls.bw_read::cpu06.data         25629046                       # Total read bandwidth from this memory (bytes/s)
system.mem_ctrls.bw_read::cpu07.inst         72615631                       # Total read bandwidth from this memory (bytes/s)
system.mem_ctrls.bw_read::cpu07.data         24205210                       # Total read bandwidth from this memory (bytes/s)
system.mem_ctrls.bw_read::cpu08.inst         74039467                       # Total read bandwidth from this memory (bytes/s)
system.mem_ctrls.bw_read::cpu08.data         25629046                       # Total read bandwidth from this memory (bytes/s)
system.mem_ctrls.bw_read::cpu09.inst         72615631                       # Total read bandwidth from this memory (bytes/s)
system.mem_ctrls.bw_read::cpu09.data         24205210                       # Total read bandwidth from this memory (bytes/s)
system.mem_ctrls.bw_read::cpu10.inst         72615631                       # Total read bandwidth from this memory (bytes/s)
system.mem_ctrls.bw_read::cpu10.data         25629046                       # Total read bandwidth from this memory (bytes/s)
system.mem_ctrls.bw_read::cpu11.inst         75463303                       # Total read bandwidth from this memory (bytes/s)
system.mem_ctrls.bw_read::cpu11.data         24205210                       # Total read bandwidth from this memory (bytes/s)
system.mem_ctrls.bw_read::cpu12.inst         78310975                       # Total read bandwidth from this memory (bytes/s)
system.mem_ctrls.bw_read::cpu12.data         27052882                       # Total read bandwidth from this memory (bytes/s)
system.mem_ctrls.bw_read::cpu13.inst         72615631                       # Total read bandwidth from this memory (bytes/s)
system.mem_ctrls.bw_read::cpu13.data         24205210                       # Total read bandwidth from this memory (bytes/s)
system.mem_ctrls.bw_read::cpu14.inst         79734811                       # Total read bandwidth from this memory (bytes/s)
system.mem_ctrls.bw_read::cpu14.data         25629046                       # Total read bandwidth from this memory (bytes/s)
system.mem_ctrls.bw_read::cpu15.inst         71191795                       # Total read bandwidth from this memory (bytes/s)
system.mem_ctrls.bw_read::cpu15.data         25629046                       # Total read bandwidth from this memory (bytes/s)
system.mem_ctrls.bw_read::total            2967274022                       # Total read bandwidth from this memory (bytes/s)
system.mem_ctrls.bw_inst_read::cpu00.inst    847182362                       # Instruction read bandwidth from this memory (bytes/s)
system.mem_ctrls.bw_inst_read::cpu01.inst     74039467                       # Instruction read bandwidth from this memory (bytes/s)
system.mem_ctrls.bw_inst_read::cpu02.inst     74039467                       # Instruction read bandwidth from this memory (bytes/s)
system.mem_ctrls.bw_inst_read::cpu03.inst     72615631                       # Instruction read bandwidth from this memory (bytes/s)
system.mem_ctrls.bw_inst_read::cpu04.inst     74039467                       # Instruction read bandwidth from this memory (bytes/s)
system.mem_ctrls.bw_inst_read::cpu05.inst     72615631                       # Instruction read bandwidth from this memory (bytes/s)
system.mem_ctrls.bw_inst_read::cpu06.inst     74039467                       # Instruction read bandwidth from this memory (bytes/s)
system.mem_ctrls.bw_inst_read::cpu07.inst     72615631                       # Instruction read bandwidth from this memory (bytes/s)
system.mem_ctrls.bw_inst_read::cpu08.inst     74039467                       # Instruction read bandwidth from this memory (bytes/s)
system.mem_ctrls.bw_inst_read::cpu09.inst     72615631                       # Instruction read bandwidth from this memory (bytes/s)
system.mem_ctrls.bw_inst_read::cpu10.inst     72615631                       # Instruction read bandwidth from this memory (bytes/s)
system.mem_ctrls.bw_inst_read::cpu11.inst     75463303                       # Instruction read bandwidth from this memory (bytes/s)
system.mem_ctrls.bw_inst_read::cpu12.inst     78310975                       # Instruction read bandwidth from this memory (bytes/s)
system.mem_ctrls.bw_inst_read::cpu13.inst     72615631                       # Instruction read bandwidth from this memory (bytes/s)
system.mem_ctrls.bw_inst_read::cpu14.inst     79734811                       # Instruction read bandwidth from this memory (bytes/s)
system.mem_ctrls.bw_inst_read::cpu15.inst     71191795                       # Instruction read bandwidth from this memory (bytes/s)
system.mem_ctrls.bw_inst_read::total       1957774367                       # Instruction read bandwidth from this memory (bytes/s)
system.mem_ctrls.bw_write::writebacks        35595898                       # Write bandwidth from this memory (bytes/s)
system.mem_ctrls.bw_write::total             35595898                       # Write bandwidth from this memory (bytes/s)
system.mem_ctrls.bw_total::writebacks        35595898                       # Total bandwidth to/from this memory (bytes/s)
system.mem_ctrls.bw_total::cpu00.inst       847182362                       # Total bandwidth to/from this memory (bytes/s)
system.mem_ctrls.bw_total::cpu00.data       630759305                       # Total bandwidth to/from this memory (bytes/s)
system.mem_ctrls.bw_total::cpu01.inst        74039467                       # Total bandwidth to/from this memory (bytes/s)
system.mem_ctrls.bw_total::cpu01.data        25629046                       # Total bandwidth to/from this memory (bytes/s)
system.mem_ctrls.bw_total::cpu02.inst        74039467                       # Total bandwidth to/from this memory (bytes/s)
system.mem_ctrls.bw_total::cpu02.data        25629046                       # Total bandwidth to/from this memory (bytes/s)
system.mem_ctrls.bw_total::cpu03.inst        72615631                       # Total bandwidth to/from this memory (bytes/s)
system.mem_ctrls.bw_total::cpu03.data        24205210                       # Total bandwidth to/from this memory (bytes/s)
system.mem_ctrls.bw_total::cpu04.inst        74039467                       # Total bandwidth to/from this memory (bytes/s)
system.mem_ctrls.bw_total::cpu04.data        25629046                       # Total bandwidth to/from this memory (bytes/s)
system.mem_ctrls.bw_total::cpu05.inst        72615631                       # Total bandwidth to/from this memory (bytes/s)
system.mem_ctrls.bw_total::cpu05.data        25629046                       # Total bandwidth to/from this memory (bytes/s)
system.mem_ctrls.bw_total::cpu06.inst        74039467                       # Total bandwidth to/from this memory (bytes/s)
system.mem_ctrls.bw_total::cpu06.data        25629046                       # Total bandwidth to/from this memory (bytes/s)
system.mem_ctrls.bw_total::cpu07.inst        72615631                       # Total bandwidth to/from this memory (bytes/s)
system.mem_ctrls.bw_total::cpu07.data        24205210                       # Total bandwidth to/from this memory (bytes/s)
system.mem_ctrls.bw_total::cpu08.inst        74039467                       # Total bandwidth to/from this memory (bytes/s)
system.mem_ctrls.bw_total::cpu08.data        25629046                       # Total bandwidth to/from this memory (bytes/s)
system.mem_ctrls.bw_total::cpu09.inst        72615631                       # Total bandwidth to/from this memory (bytes/s)
system.mem_ctrls.bw_total::cpu09.data        24205210                       # Total bandwidth to/from this memory (bytes/s)
system.mem_ctrls.bw_total::cpu10.inst        72615631                       # Total bandwidth to/from this memory (bytes/s)
system.mem_ctrls.bw_total::cpu10.data        25629046                       # Total bandwidth to/from this memory (bytes/s)
system.mem_ctrls.bw_total::cpu11.inst        75463303                       # Total bandwidth to/from this memory (bytes/s)
system.mem_ctrls.bw_total::cpu11.data        24205210                       # Total bandwidth to/from this memory (bytes/s)
system.mem_ctrls.bw_total::cpu12.inst        78310975                       # Total bandwidth to/from this memory (bytes/s)
system.mem_ctrls.bw_total::cpu12.data        27052882                       # Total bandwidth to/from this memory (bytes/s)
system.mem_ctrls.bw_total::cpu13.inst        72615631                       # Total bandwidth to/from this memory (bytes/s)
system.mem_ctrls.bw_total::cpu13.data        24205210                       # Total bandwidth to/from this memory (bytes/s)
system.mem_ctrls.bw_total::cpu14.inst        79734811                       # Total bandwidth to/from this memory (bytes/s)
system.mem_ctrls.bw_total::cpu14.data        25629046                       # Total bandwidth to/from this memory (bytes/s)
system.mem_ctrls.bw_total::cpu15.inst        71191795                       # Total bandwidth to/from this memory (bytes/s)
system.mem_ctrls.bw_total::cpu15.data        25629046                       # Total bandwidth to/from this memory (bytes/s)
system.mem_ctrls.bw_total::total           3002869919                       # Total bandwidth to/from this memory (bytes/s)
system.mem_ctrls.readReqs                        2085                       # Number of read requests accepted
system.mem_ctrls.writeReqs                         25                       # Number of write requests accepted
system.mem_ctrls.readBursts                      2085                       # Number of DRAM read bursts, including those serviced by the write queue
system.mem_ctrls.writeBursts                       25                       # Number of DRAM write bursts, including those merged in the write queue
system.mem_ctrls.bytesReadDRAM                 131072                       # Total number of bytes read from DRAM
system.mem_ctrls.bytesReadWrQ                    2368                       # Total number of bytes read from write queue
system.mem_ctrls.bytesWritten                       0                       # Total number of bytes written to DRAM
system.mem_ctrls.bytesReadSys                  133440                       # Total read bytes from the system interface side
system.mem_ctrls.bytesWrittenSys                 1600                       # Total written bytes from the system interface side
system.mem_ctrls.servicedByWrQ                     37                       # Number of DRAM read bursts serviced by the write queue
system.mem_ctrls.mergedWrBursts                     2                       # Number of DRAM write bursts merged with an existing one
system.mem_ctrls.neitherReadNorWriteReqs           22                       # Number of requests that are neither read nor write
system.mem_ctrls.perBankRdBursts::0               259                       # Per bank write bursts
system.mem_ctrls.perBankRdBursts::1               596                       # Per bank write bursts
system.mem_ctrls.perBankRdBursts::2               313                       # Per bank write bursts
system.mem_ctrls.perBankRdBursts::3               295                       # Per bank write bursts
system.mem_ctrls.perBankRdBursts::4               103                       # Per bank write bursts
system.mem_ctrls.perBankRdBursts::5                82                       # Per bank write bursts
system.mem_ctrls.perBankRdBursts::6               152                       # Per bank write bursts
system.mem_ctrls.perBankRdBursts::7                35                       # Per bank write bursts
system.mem_ctrls.perBankRdBursts::8                14                       # Per bank write bursts
system.mem_ctrls.perBankRdBursts::9                10                       # Per bank write bursts
system.mem_ctrls.perBankRdBursts::10                0                       # Per bank write bursts
system.mem_ctrls.perBankRdBursts::11               15                       # Per bank write bursts
system.mem_ctrls.perBankRdBursts::12                9                       # Per bank write bursts
system.mem_ctrls.perBankRdBursts::13               38                       # Per bank write bursts
system.mem_ctrls.perBankRdBursts::14               40                       # Per bank write bursts
system.mem_ctrls.perBankRdBursts::15               87                       # Per bank write bursts
system.mem_ctrls.perBankWrBursts::0                 0                       # Per bank write bursts
system.mem_ctrls.perBankWrBursts::1                 0                       # Per bank write bursts
system.mem_ctrls.perBankWrBursts::2                 0                       # Per bank write bursts
system.mem_ctrls.perBankWrBursts::3                 0                       # Per bank write bursts
system.mem_ctrls.perBankWrBursts::4                 0                       # Per bank write bursts
system.mem_ctrls.perBankWrBursts::5                 0                       # Per bank write bursts
system.mem_ctrls.perBankWrBursts::6                 0                       # Per bank write bursts
system.mem_ctrls.perBankWrBursts::7                 0                       # Per bank write bursts
system.mem_ctrls.perBankWrBursts::8                 0                       # Per bank write bursts
system.mem_ctrls.perBankWrBursts::9                 0                       # Per bank write bursts
system.mem_ctrls.perBankWrBursts::10                0                       # Per bank write bursts
system.mem_ctrls.perBankWrBursts::11                0                       # Per bank write bursts
system.mem_ctrls.perBankWrBursts::12                0                       # Per bank write bursts
system.mem_ctrls.perBankWrBursts::13                0                       # Per bank write bursts
system.mem_ctrls.perBankWrBursts::14                0                       # Per bank write bursts
system.mem_ctrls.perBankWrBursts::15                0                       # Per bank write bursts
system.mem_ctrls.numRdRetry                         7                       # Number of times read queue was full causing retry
system.mem_ctrls.numWrRetry                         0                       # Number of times write queue was full causing retry
system.mem_ctrls.totGap                      44941500                       # Total gap between requests
system.mem_ctrls.readPktSize::0                     0                       # Read request sizes (log2)
system.mem_ctrls.readPktSize::1                     0                       # Read request sizes (log2)
system.mem_ctrls.readPktSize::2                     0                       # Read request sizes (log2)
system.mem_ctrls.readPktSize::3                     0                       # Read request sizes (log2)
system.mem_ctrls.readPktSize::4                     0                       # Read request sizes (log2)
system.mem_ctrls.readPktSize::5                     0                       # Read request sizes (log2)
system.mem_ctrls.readPktSize::6                  2085                       # Read request sizes (log2)
system.mem_ctrls.writePktSize::0                    0                       # Write request sizes (log2)
system.mem_ctrls.writePktSize::1                    0                       # Write request sizes (log2)
system.mem_ctrls.writePktSize::2                    0                       # Write request sizes (log2)
system.mem_ctrls.writePktSize::3                    0                       # Write request sizes (log2)
system.mem_ctrls.writePktSize::4                    0                       # Write request sizes (log2)
system.mem_ctrls.writePktSize::5                    0                       # Write request sizes (log2)
system.mem_ctrls.writePktSize::6                   25                       # Write request sizes (log2)
system.mem_ctrls.rdQLenPdf::0                     539                       # What read queue length does an incoming req see
system.mem_ctrls.rdQLenPdf::1                     352                       # What read queue length does an incoming req see
system.mem_ctrls.rdQLenPdf::2                     128                       # What read queue length does an incoming req see
system.mem_ctrls.rdQLenPdf::3                      99                       # What read queue length does an incoming req see
system.mem_ctrls.rdQLenPdf::4                      64                       # What read queue length does an incoming req see
system.mem_ctrls.rdQLenPdf::5                      47                       # What read queue length does an incoming req see
system.mem_ctrls.rdQLenPdf::6                      57                       # What read queue length does an incoming req see
system.mem_ctrls.rdQLenPdf::7                      52                       # What read queue length does an incoming req see
system.mem_ctrls.rdQLenPdf::8                      62                       # What read queue length does an incoming req see
system.mem_ctrls.rdQLenPdf::9                      83                       # What read queue length does an incoming req see
system.mem_ctrls.rdQLenPdf::10                     87                       # What read queue length does an incoming req see
system.mem_ctrls.rdQLenPdf::11                     83                       # What read queue length does an incoming req see
system.mem_ctrls.rdQLenPdf::12                     57                       # What read queue length does an incoming req see
system.mem_ctrls.rdQLenPdf::13                     47                       # What read queue length does an incoming req see
system.mem_ctrls.rdQLenPdf::14                     36                       # What read queue length does an incoming req see
system.mem_ctrls.rdQLenPdf::15                     30                       # What read queue length does an incoming req see
system.mem_ctrls.rdQLenPdf::16                     22                       # What read queue length does an incoming req see
system.mem_ctrls.rdQLenPdf::17                     18                       # What read queue length does an incoming req see
system.mem_ctrls.rdQLenPdf::18                     10                       # What read queue length does an incoming req see
system.mem_ctrls.rdQLenPdf::19                     14                       # What read queue length does an incoming req see
system.mem_ctrls.rdQLenPdf::20                     15                       # What read queue length does an incoming req see
system.mem_ctrls.rdQLenPdf::21                     30                       # What read queue length does an incoming req see
system.mem_ctrls.rdQLenPdf::22                     18                       # What read queue length does an incoming req see
system.mem_ctrls.rdQLenPdf::23                     14                       # What read queue length does an incoming req see
system.mem_ctrls.rdQLenPdf::24                     10                       # What read queue length does an incoming req see
system.mem_ctrls.rdQLenPdf::25                     22                       # What read queue length does an incoming req see
system.mem_ctrls.rdQLenPdf::26                      8                       # What read queue length does an incoming req see
system.mem_ctrls.rdQLenPdf::27                      9                       # What read queue length does an incoming req see
system.mem_ctrls.rdQLenPdf::28                      7                       # What read queue length does an incoming req see
system.mem_ctrls.rdQLenPdf::29                      7                       # What read queue length does an incoming req see
system.mem_ctrls.rdQLenPdf::30                      9                       # What read queue length does an incoming req see
system.mem_ctrls.rdQLenPdf::31                     12                       # What read queue length does an incoming req see
system.mem_ctrls.wrQLenPdf::0                       1                       # What write queue length does an incoming req see
system.mem_ctrls.wrQLenPdf::1                       1                       # What write queue length does an incoming req see
system.mem_ctrls.wrQLenPdf::2                       1                       # What write queue length does an incoming req see
system.mem_ctrls.wrQLenPdf::3                       1                       # What write queue length does an incoming req see
system.mem_ctrls.wrQLenPdf::4                       1                       # What write queue length does an incoming req see
system.mem_ctrls.wrQLenPdf::5                       1                       # What write queue length does an incoming req see
system.mem_ctrls.wrQLenPdf::6                       1                       # What write queue length does an incoming req see
system.mem_ctrls.wrQLenPdf::7                       1                       # What write queue length does an incoming req see
system.mem_ctrls.wrQLenPdf::8                       1                       # What write queue length does an incoming req see
system.mem_ctrls.wrQLenPdf::9                       1                       # What write queue length does an incoming req see
system.mem_ctrls.wrQLenPdf::10                      1                       # What write queue length does an incoming req see
system.mem_ctrls.wrQLenPdf::11                      1                       # What write queue length does an incoming req see
system.mem_ctrls.wrQLenPdf::12                      1                       # What write queue length does an incoming req see
system.mem_ctrls.wrQLenPdf::13                      1                       # What write queue length does an incoming req see
system.mem_ctrls.wrQLenPdf::14                      1                       # What write queue length does an incoming req see
system.mem_ctrls.wrQLenPdf::15                      1                       # What write queue length does an incoming req see
system.mem_ctrls.wrQLenPdf::16                      1                       # What write queue length does an incoming req see
system.mem_ctrls.wrQLenPdf::17                      1                       # What write queue length does an incoming req see
system.mem_ctrls.wrQLenPdf::18                      1                       # What write queue length does an incoming req see
system.mem_ctrls.wrQLenPdf::19                      1                       # What write queue length does an incoming req see
system.mem_ctrls.wrQLenPdf::20                      1                       # What write queue length does an incoming req see
system.mem_ctrls.wrQLenPdf::21                      1                       # What write queue length does an incoming req see
system.mem_ctrls.wrQLenPdf::22                      1                       # What write queue length does an incoming req see
system.mem_ctrls.wrQLenPdf::23                      0                       # What write queue length does an incoming req see
system.mem_ctrls.wrQLenPdf::24                      0                       # What write queue length does an incoming req see
system.mem_ctrls.wrQLenPdf::25                      0                       # What write queue length does an incoming req see
system.mem_ctrls.wrQLenPdf::26                      0                       # What write queue length does an incoming req see
system.mem_ctrls.wrQLenPdf::27                      0                       # What write queue length does an incoming req see
system.mem_ctrls.wrQLenPdf::28                      0                       # What write queue length does an incoming req see
system.mem_ctrls.wrQLenPdf::29                      0                       # What write queue length does an incoming req see
system.mem_ctrls.wrQLenPdf::30                      0                       # What write queue length does an incoming req see
system.mem_ctrls.wrQLenPdf::31                      0                       # What write queue length does an incoming req see
system.mem_ctrls.wrQLenPdf::32                      0                       # What write queue length does an incoming req see
system.mem_ctrls.wrQLenPdf::33                      0                       # What write queue length does an incoming req see
system.mem_ctrls.wrQLenPdf::34                      0                       # What write queue length does an incoming req see
system.mem_ctrls.wrQLenPdf::35                      0                       # What write queue length does an incoming req see
system.mem_ctrls.wrQLenPdf::36                      0                       # What write queue length does an incoming req see
system.mem_ctrls.wrQLenPdf::37                      0                       # What write queue length does an incoming req see
system.mem_ctrls.wrQLenPdf::38                      0                       # What write queue length does an incoming req see
system.mem_ctrls.wrQLenPdf::39                      0                       # What write queue length does an incoming req see
system.mem_ctrls.wrQLenPdf::40                      0                       # What write queue length does an incoming req see
system.mem_ctrls.wrQLenPdf::41                      0                       # What write queue length does an incoming req see
system.mem_ctrls.wrQLenPdf::42                      0                       # What write queue length does an incoming req see
system.mem_ctrls.wrQLenPdf::43                      0                       # What write queue length does an incoming req see
system.mem_ctrls.wrQLenPdf::44                      0                       # What write queue length does an incoming req see
system.mem_ctrls.wrQLenPdf::45                      0                       # What write queue length does an incoming req see
system.mem_ctrls.wrQLenPdf::46                      0                       # What write queue length does an incoming req see
system.mem_ctrls.wrQLenPdf::47                      0                       # What write queue length does an incoming req see
system.mem_ctrls.wrQLenPdf::48                      0                       # What write queue length does an incoming req see
system.mem_ctrls.wrQLenPdf::49                      0                       # What write queue length does an incoming req see
system.mem_ctrls.wrQLenPdf::50                      0                       # What write queue length does an incoming req see
system.mem_ctrls.wrQLenPdf::51                      0                       # What write queue length does an incoming req see
system.mem_ctrls.wrQLenPdf::52                      0                       # What write queue length does an incoming req see
system.mem_ctrls.wrQLenPdf::53                      0                       # What write queue length does an incoming req see
system.mem_ctrls.wrQLenPdf::54                      0                       # What write queue length does an incoming req see
system.mem_ctrls.wrQLenPdf::55                      0                       # What write queue length does an incoming req see
system.mem_ctrls.wrQLenPdf::56                      0                       # What write queue length does an incoming req see
system.mem_ctrls.wrQLenPdf::57                      0                       # What write queue length does an incoming req see
system.mem_ctrls.wrQLenPdf::58                      0                       # What write queue length does an incoming req see
system.mem_ctrls.wrQLenPdf::59                      0                       # What write queue length does an incoming req see
system.mem_ctrls.wrQLenPdf::60                      0                       # What write queue length does an incoming req see
system.mem_ctrls.wrQLenPdf::61                      0                       # What write queue length does an incoming req see
system.mem_ctrls.wrQLenPdf::62                      0                       # What write queue length does an incoming req see
system.mem_ctrls.wrQLenPdf::63                      0                       # What write queue length does an incoming req see
system.mem_ctrls.bytesPerActivate::samples          398                       # Bytes accessed per row activation
system.mem_ctrls.bytesPerActivate::mean    322.572864                       # Bytes accessed per row activation
system.mem_ctrls.bytesPerActivate::gmean   172.008319                       # Bytes accessed per row activation
system.mem_ctrls.bytesPerActivate::stdev   361.573240                       # Bytes accessed per row activation
system.mem_ctrls.bytesPerActivate::0-127          191     47.99%     47.99% # Bytes accessed per row activation
system.mem_ctrls.bytesPerActivate::128-255           57     14.32%     62.31% # Bytes accessed per row activation
system.mem_ctrls.bytesPerActivate::256-383           31      7.79%     70.10% # Bytes accessed per row activation
system.mem_ctrls.bytesPerActivate::384-511           19      4.77%     74.87% # Bytes accessed per row activation
system.mem_ctrls.bytesPerActivate::512-639           12      3.02%     77.89% # Bytes accessed per row activation
system.mem_ctrls.bytesPerActivate::640-767           10      2.51%     80.40% # Bytes accessed per row activation
system.mem_ctrls.bytesPerActivate::768-895            9      2.26%     82.66% # Bytes accessed per row activation
system.mem_ctrls.bytesPerActivate::896-1023            6      1.51%     84.17% # Bytes accessed per row activation
system.mem_ctrls.bytesPerActivate::1024-1151           63     15.83%    100.00% # Bytes accessed per row activation
system.mem_ctrls.bytesPerActivate::total          398                       # Bytes accessed per row activation
system.mem_ctrls.totQLat                     85943000                       # Total ticks spent queuing
system.mem_ctrls.totMemAccLat               124343000                       # Total ticks spent from burst creation until serviced by the DRAM
system.mem_ctrls.totBusLat                   10240000                       # Total ticks spent in databus transfers
system.mem_ctrls.avgQLat                     41964.36                       # Average queueing delay per DRAM burst
system.mem_ctrls.avgBusLat                    5000.00                       # Average bus latency per DRAM burst
system.mem_ctrls.avgMemAccLat                60714.36                       # Average memory access latency per DRAM burst
system.mem_ctrls.avgRdBW                      2916.02                       # Average DRAM read bandwidth in MiByte/s
system.mem_ctrls.avgWrBW                         0.00                       # Average achieved write bandwidth in MiByte/s
system.mem_ctrls.avgRdBWSys                   2968.70                       # Average system read bandwidth in MiByte/s
system.mem_ctrls.avgWrBWSys                     35.60                       # Average system write bandwidth in MiByte/s
system.mem_ctrls.peakBW                      12800.00                       # Theoretical peak bandwidth in MiByte/s
system.mem_ctrls.busUtil                        22.78                       # Data bus utilization in percentage
system.mem_ctrls.busUtilRead                    22.78                       # Data bus utilization in percentage for reads
system.mem_ctrls.busUtilWrite                    0.00                       # Data bus utilization in percentage for writes
system.mem_ctrls.avgRdQLen                       3.85                       # Average read queue length when enqueuing
system.mem_ctrls.avgWrQLen                       6.06                       # Average write queue length when enqueuing
system.mem_ctrls.readRowHits                     1638                       # Number of row buffer hits during reads
system.mem_ctrls.writeRowHits                       0                       # Number of row buffer hits during writes
system.mem_ctrls.readRowHitRate                 79.98                       # Row buffer hit rate for reads
system.mem_ctrls.writeRowHitRate                 0.00                       # Row buffer hit rate for writes
system.mem_ctrls.avgGap                      21299.29                       # Average gap between requests
system.mem_ctrls.pageHitRate                    79.09                       # Row buffer hit rate, read and write combined
system.mem_ctrls_0.actEnergy                  2419200                       # Energy for activate commands per rank (pJ)
system.mem_ctrls_0.preEnergy                  1320000                       # Energy for precharge commands per rank (pJ)
system.mem_ctrls_0.readEnergy                11216400                       # Energy for read commands per rank (pJ)
system.mem_ctrls_0.writeEnergy                      0                       # Energy for write commands per rank (pJ)
system.mem_ctrls_0.refreshEnergy              2542800                       # Energy for refresh commands per rank (pJ)
system.mem_ctrls_0.actBackEnergy             26683695                       # Energy for active background per rank (pJ)
system.mem_ctrls_0.preBackEnergy               129000                       # Energy for precharge background per rank (pJ)
system.mem_ctrls_0.totalEnergy               44311095                       # Total energy per rank (pJ)
system.mem_ctrls_0.averagePower           1129.628629                       # Core power per rank (mW)
system.mem_ctrls_0.memoryStateTime::IDLE        37000                       # Time in different power states
system.mem_ctrls_0.memoryStateTime::REF       1300000                       # Time in different power states
system.mem_ctrls_0.memoryStateTime::PRE_PDN            0                       # Time in different power states
system.mem_ctrls_0.memoryStateTime::ACT      37902250                       # Time in different power states
system.mem_ctrls_0.memoryStateTime::ACT_PDN            0                       # Time in different power states
system.mem_ctrls_1.actEnergy                   204120                       # Energy for activate commands per rank (pJ)
system.mem_ctrls_1.preEnergy                   111375                       # Energy for precharge commands per rank (pJ)
system.mem_ctrls_1.readEnergy                 1318200                       # Energy for read commands per rank (pJ)
system.mem_ctrls_1.writeEnergy                      0                       # Energy for write commands per rank (pJ)
system.mem_ctrls_1.refreshEnergy              2542800                       # Energy for refresh commands per rank (pJ)
system.mem_ctrls_1.actBackEnergy             24299955                       # Energy for active background per rank (pJ)
system.mem_ctrls_1.preBackEnergy              2199000                       # Energy for precharge background per rank (pJ)
system.mem_ctrls_1.totalEnergy               30675450                       # Total energy per rank (pJ)
system.mem_ctrls_1.averagePower            782.711702                       # Core power per rank (mW)
system.mem_ctrls_1.memoryStateTime::IDLE      3821750                       # Time in different power states
system.mem_ctrls_1.memoryStateTime::REF       1300000                       # Time in different power states
system.mem_ctrls_1.memoryStateTime::PRE_PDN            0                       # Time in different power states
system.mem_ctrls_1.memoryStateTime::ACT      34378750                       # Time in different power states
system.mem_ctrls_1.memoryStateTime::ACT_PDN            0                       # Time in different power states
system.cpu00.branchPred.lookups                 11717                       # Number of BP lookups
system.cpu00.branchPred.condPredicted            9372                       # Number of conditional branches predicted
system.cpu00.branchPred.condIncorrect             977                       # Number of conditional branches incorrect
system.cpu00.branchPred.BTBLookups               8232                       # Number of BTB lookups
system.cpu00.branchPred.BTBHits                  5031                       # Number of BTB hits
system.cpu00.branchPred.BTBCorrect                  0                       # Number of correct BTB predictions (this stat may not work properly.
system.cpu00.branchPred.BTBHitPct           61.115160                       # BTB Hit Percentage
system.cpu00.branchPred.usedRAS                   960                       # Number of times the RAS was used to get a target.
system.cpu00.branchPred.RASInCorrect               15                       # Number of incorrect RAS predictions.
system.cpu_voltage_domain.voltage                   1                       # Voltage in Volts
system.cpu_clk_domain.clock                       500                       # Clock period in ticks
system.cpu00.dstage2_mmu.stage2_tlb.walker.walks            0                       # Table walker walks requested
system.cpu00.dstage2_mmu.stage2_tlb.walker.walkRequestOrigin_Requested::Data            0                       # Table walker requests started/completed, data/inst
system.cpu00.dstage2_mmu.stage2_tlb.walker.walkRequestOrigin_Requested::Inst            0                       # Table walker requests started/completed, data/inst
system.cpu00.dstage2_mmu.stage2_tlb.walker.walkRequestOrigin_Requested::total            0                       # Table walker requests started/completed, data/inst
system.cpu00.dstage2_mmu.stage2_tlb.walker.walkRequestOrigin_Completed::Data            0                       # Table walker requests started/completed, data/inst
system.cpu00.dstage2_mmu.stage2_tlb.walker.walkRequestOrigin_Completed::Inst            0                       # Table walker requests started/completed, data/inst
system.cpu00.dstage2_mmu.stage2_tlb.walker.walkRequestOrigin_Completed::total            0                       # Table walker requests started/completed, data/inst
system.cpu00.dstage2_mmu.stage2_tlb.walker.walkRequestOrigin::total            0                       # Table walker requests started/completed, data/inst
system.cpu00.dstage2_mmu.stage2_tlb.inst_hits            0                       # ITB inst hits
system.cpu00.dstage2_mmu.stage2_tlb.inst_misses            0                       # ITB inst misses
system.cpu00.dstage2_mmu.stage2_tlb.read_hits            0                       # DTB read hits
system.cpu00.dstage2_mmu.stage2_tlb.read_misses            0                       # DTB read misses
system.cpu00.dstage2_mmu.stage2_tlb.write_hits            0                       # DTB write hits
system.cpu00.dstage2_mmu.stage2_tlb.write_misses            0                       # DTB write misses
system.cpu00.dstage2_mmu.stage2_tlb.flush_tlb            0                       # Number of times complete TLB was flushed
system.cpu00.dstage2_mmu.stage2_tlb.flush_tlb_mva            0                       # Number of times TLB was flushed by MVA
system.cpu00.dstage2_mmu.stage2_tlb.flush_tlb_mva_asid            0                       # Number of times TLB was flushed by MVA & ASID
system.cpu00.dstage2_mmu.stage2_tlb.flush_tlb_asid            0                       # Number of times TLB was flushed by ASID
system.cpu00.dstage2_mmu.stage2_tlb.flush_entries            0                       # Number of entries that have been flushed from TLB
system.cpu00.dstage2_mmu.stage2_tlb.align_faults            0                       # Number of TLB faults due to alignment restrictions
system.cpu00.dstage2_mmu.stage2_tlb.prefetch_faults            0                       # Number of TLB faults due to prefetch
system.cpu00.dstage2_mmu.stage2_tlb.domain_faults            0                       # Number of TLB faults due to domain restrictions
system.cpu00.dstage2_mmu.stage2_tlb.perms_faults            0                       # Number of TLB faults due to permissions restrictions
system.cpu00.dstage2_mmu.stage2_tlb.read_accesses            0                       # DTB read accesses
system.cpu00.dstage2_mmu.stage2_tlb.write_accesses            0                       # DTB write accesses
system.cpu00.dstage2_mmu.stage2_tlb.inst_accesses            0                       # ITB inst accesses
system.cpu00.dstage2_mmu.stage2_tlb.hits            0                       # DTB hits
system.cpu00.dstage2_mmu.stage2_tlb.misses            0                       # DTB misses
system.cpu00.dstage2_mmu.stage2_tlb.accesses            0                       # DTB accesses
system.cpu00.dtb.walker.walks                       0                       # Table walker walks requested
system.cpu00.dtb.walker.walkRequestOrigin_Requested::Data            0                       # Table walker requests started/completed, data/inst
system.cpu00.dtb.walker.walkRequestOrigin_Requested::Inst            0                       # Table walker requests started/completed, data/inst
system.cpu00.dtb.walker.walkRequestOrigin_Requested::total            0                       # Table walker requests started/completed, data/inst
system.cpu00.dtb.walker.walkRequestOrigin_Completed::Data            0                       # Table walker requests started/completed, data/inst
system.cpu00.dtb.walker.walkRequestOrigin_Completed::Inst            0                       # Table walker requests started/completed, data/inst
system.cpu00.dtb.walker.walkRequestOrigin_Completed::total            0                       # Table walker requests started/completed, data/inst
system.cpu00.dtb.walker.walkRequestOrigin::total            0                       # Table walker requests started/completed, data/inst
system.cpu00.dtb.inst_hits                          0                       # ITB inst hits
system.cpu00.dtb.inst_misses                        0                       # ITB inst misses
system.cpu00.dtb.read_hits                          0                       # DTB read hits
system.cpu00.dtb.read_misses                        0                       # DTB read misses
system.cpu00.dtb.write_hits                         0                       # DTB write hits
system.cpu00.dtb.write_misses                       0                       # DTB write misses
system.cpu00.dtb.flush_tlb                          0                       # Number of times complete TLB was flushed
system.cpu00.dtb.flush_tlb_mva                      0                       # Number of times TLB was flushed by MVA
system.cpu00.dtb.flush_tlb_mva_asid                 0                       # Number of times TLB was flushed by MVA & ASID
system.cpu00.dtb.flush_tlb_asid                     0                       # Number of times TLB was flushed by ASID
system.cpu00.dtb.flush_entries                      0                       # Number of entries that have been flushed from TLB
system.cpu00.dtb.align_faults                       0                       # Number of TLB faults due to alignment restrictions
system.cpu00.dtb.prefetch_faults                    0                       # Number of TLB faults due to prefetch
system.cpu00.dtb.domain_faults                      0                       # Number of TLB faults due to domain restrictions
system.cpu00.dtb.perms_faults                       0                       # Number of TLB faults due to permissions restrictions
system.cpu00.dtb.read_accesses                      0                       # DTB read accesses
system.cpu00.dtb.write_accesses                     0                       # DTB write accesses
system.cpu00.dtb.inst_accesses                      0                       # ITB inst accesses
system.cpu00.dtb.hits                               0                       # DTB hits
system.cpu00.dtb.misses                             0                       # DTB misses
system.cpu00.dtb.accesses                           0                       # DTB accesses
system.cpu00.istage2_mmu.stage2_tlb.walker.walks            0                       # Table walker walks requested
system.cpu00.istage2_mmu.stage2_tlb.walker.walkRequestOrigin_Requested::Data            0                       # Table walker requests started/completed, data/inst
system.cpu00.istage2_mmu.stage2_tlb.walker.walkRequestOrigin_Requested::Inst            0                       # Table walker requests started/completed, data/inst
system.cpu00.istage2_mmu.stage2_tlb.walker.walkRequestOrigin_Requested::total            0                       # Table walker requests started/completed, data/inst
system.cpu00.istage2_mmu.stage2_tlb.walker.walkRequestOrigin_Completed::Data            0                       # Table walker requests started/completed, data/inst
system.cpu00.istage2_mmu.stage2_tlb.walker.walkRequestOrigin_Completed::Inst            0                       # Table walker requests started/completed, data/inst
system.cpu00.istage2_mmu.stage2_tlb.walker.walkRequestOrigin_Completed::total            0                       # Table walker requests started/completed, data/inst
system.cpu00.istage2_mmu.stage2_tlb.walker.walkRequestOrigin::total            0                       # Table walker requests started/completed, data/inst
system.cpu00.istage2_mmu.stage2_tlb.inst_hits            0                       # ITB inst hits
system.cpu00.istage2_mmu.stage2_tlb.inst_misses            0                       # ITB inst misses
system.cpu00.istage2_mmu.stage2_tlb.read_hits            0                       # DTB read hits
system.cpu00.istage2_mmu.stage2_tlb.read_misses            0                       # DTB read misses
system.cpu00.istage2_mmu.stage2_tlb.write_hits            0                       # DTB write hits
system.cpu00.istage2_mmu.stage2_tlb.write_misses            0                       # DTB write misses
system.cpu00.istage2_mmu.stage2_tlb.flush_tlb            0                       # Number of times complete TLB was flushed
system.cpu00.istage2_mmu.stage2_tlb.flush_tlb_mva            0                       # Number of times TLB was flushed by MVA
system.cpu00.istage2_mmu.stage2_tlb.flush_tlb_mva_asid            0                       # Number of times TLB was flushed by MVA & ASID
system.cpu00.istage2_mmu.stage2_tlb.flush_tlb_asid            0                       # Number of times TLB was flushed by ASID
system.cpu00.istage2_mmu.stage2_tlb.flush_entries            0                       # Number of entries that have been flushed from TLB
system.cpu00.istage2_mmu.stage2_tlb.align_faults            0                       # Number of TLB faults due to alignment restrictions
system.cpu00.istage2_mmu.stage2_tlb.prefetch_faults            0                       # Number of TLB faults due to prefetch
system.cpu00.istage2_mmu.stage2_tlb.domain_faults            0                       # Number of TLB faults due to domain restrictions
system.cpu00.istage2_mmu.stage2_tlb.perms_faults            0                       # Number of TLB faults due to permissions restrictions
system.cpu00.istage2_mmu.stage2_tlb.read_accesses            0                       # DTB read accesses
system.cpu00.istage2_mmu.stage2_tlb.write_accesses            0                       # DTB write accesses
system.cpu00.istage2_mmu.stage2_tlb.inst_accesses            0                       # ITB inst accesses
system.cpu00.istage2_mmu.stage2_tlb.hits            0                       # DTB hits
system.cpu00.istage2_mmu.stage2_tlb.misses            0                       # DTB misses
system.cpu00.istage2_mmu.stage2_tlb.accesses            0                       # DTB accesses
system.cpu00.itb.walker.walks                       0                       # Table walker walks requested
system.cpu00.itb.walker.walkRequestOrigin_Requested::Data            0                       # Table walker requests started/completed, data/inst
system.cpu00.itb.walker.walkRequestOrigin_Requested::Inst            0                       # Table walker requests started/completed, data/inst
system.cpu00.itb.walker.walkRequestOrigin_Requested::total            0                       # Table walker requests started/completed, data/inst
system.cpu00.itb.walker.walkRequestOrigin_Completed::Data            0                       # Table walker requests started/completed, data/inst
system.cpu00.itb.walker.walkRequestOrigin_Completed::Inst            0                       # Table walker requests started/completed, data/inst
system.cpu00.itb.walker.walkRequestOrigin_Completed::total            0                       # Table walker requests started/completed, data/inst
system.cpu00.itb.walker.walkRequestOrigin::total            0                       # Table walker requests started/completed, data/inst
system.cpu00.itb.inst_hits                          0                       # ITB inst hits
system.cpu00.itb.inst_misses                        0                       # ITB inst misses
system.cpu00.itb.read_hits                          0                       # DTB read hits
system.cpu00.itb.read_misses                        0                       # DTB read misses
system.cpu00.itb.write_hits                         0                       # DTB write hits
system.cpu00.itb.write_misses                       0                       # DTB write misses
system.cpu00.itb.flush_tlb                          0                       # Number of times complete TLB was flushed
system.cpu00.itb.flush_tlb_mva                      0                       # Number of times TLB was flushed by MVA
system.cpu00.itb.flush_tlb_mva_asid                 0                       # Number of times TLB was flushed by MVA & ASID
system.cpu00.itb.flush_tlb_asid                     0                       # Number of times TLB was flushed by ASID
system.cpu00.itb.flush_entries                      0                       # Number of entries that have been flushed from TLB
system.cpu00.itb.align_faults                       0                       # Number of TLB faults due to alignment restrictions
system.cpu00.itb.prefetch_faults                    0                       # Number of TLB faults due to prefetch
system.cpu00.itb.domain_faults                      0                       # Number of TLB faults due to domain restrictions
system.cpu00.itb.perms_faults                       0                       # Number of TLB faults due to permissions restrictions
system.cpu00.itb.read_accesses                      0                       # DTB read accesses
system.cpu00.itb.write_accesses                     0                       # DTB write accesses
system.cpu00.itb.inst_accesses                      0                       # ITB inst accesses
system.cpu00.itb.hits                               0                       # DTB hits
system.cpu00.itb.misses                             0                       # DTB misses
system.cpu00.itb.accesses                           0                       # DTB accesses
system.cpu00.workload.num_syscalls                728                       # Number of system calls
system.cpu00.numCycles                          89899                       # number of cpu cycles simulated
system.cpu00.numWorkItemsStarted                    0                       # number of work items this cpu started
system.cpu00.numWorkItemsCompleted                  0                       # number of work items this cpu completed
system.cpu00.fetch.icacheStallCycles            19554                       # Number of cycles fetch is stalled on an Icache miss
system.cpu00.fetch.Insts                        62653                       # Number of instructions fetch has processed
system.cpu00.fetch.Branches                     11717                       # Number of branches that fetch encountered
system.cpu00.fetch.predictedBranches             5991                       # Number of branches that fetch has predicted taken
system.cpu00.fetch.Cycles                       33429                       # Number of cycles fetch has run and was not squashing or blocked
system.cpu00.fetch.SquashCycles                  2141                       # Number of cycles fetch has spent squashing
system.cpu00.fetch.MiscStallCycles                  1                       # Number of cycles fetch has spent waiting on interrupts, or bad addresses, or out of MSHRs
system.cpu00.fetch.PendingTrapStallCycles            1                       # Number of stall cycles due to pending traps
system.cpu00.fetch.CacheLines                    6590                       # Number of cache lines fetched
system.cpu00.fetch.IcacheSquashes                 599                       # Number of outstanding Icache misses that were squashed
system.cpu00.fetch.rateDist::samples            54055                       # Number of instructions fetched each cycle (Total)
system.cpu00.fetch.rateDist::mean            1.336380                       # Number of instructions fetched each cycle (Total)
system.cpu00.fetch.rateDist::stdev           2.749284                       # Number of instructions fetched each cycle (Total)
system.cpu00.fetch.rateDist::underflows             0      0.00%      0.00% # Number of instructions fetched each cycle (Total)
system.cpu00.fetch.rateDist::0                  41917     77.55%     77.55% # Number of instructions fetched each cycle (Total)
system.cpu00.fetch.rateDist::1                    867      1.60%     79.15% # Number of instructions fetched each cycle (Total)
system.cpu00.fetch.rateDist::2                   1163      2.15%     81.30% # Number of instructions fetched each cycle (Total)
system.cpu00.fetch.rateDist::3                    710      1.31%     82.61% # Number of instructions fetched each cycle (Total)
system.cpu00.fetch.rateDist::4                    866      1.60%     84.22% # Number of instructions fetched each cycle (Total)
system.cpu00.fetch.rateDist::5                    579      1.07%     85.29% # Number of instructions fetched each cycle (Total)
system.cpu00.fetch.rateDist::6                    948      1.75%     87.04% # Number of instructions fetched each cycle (Total)
system.cpu00.fetch.rateDist::7                   1172      2.17%     89.21% # Number of instructions fetched each cycle (Total)
system.cpu00.fetch.rateDist::8                   5833     10.79%    100.00% # Number of instructions fetched each cycle (Total)
system.cpu00.fetch.rateDist::overflows              0      0.00%    100.00% # Number of instructions fetched each cycle (Total)
system.cpu00.fetch.rateDist::min_value              0                       # Number of instructions fetched each cycle (Total)
system.cpu00.fetch.rateDist::max_value              8                       # Number of instructions fetched each cycle (Total)
system.cpu00.fetch.rateDist::total              54055                       # Number of instructions fetched each cycle (Total)
system.cpu00.fetch.branchRate                0.130335                       # Number of branch fetches per cycle
system.cpu00.fetch.rate                      0.696927                       # Number of inst fetches per cycle
system.cpu00.decode.IdleCycles                  15780                       # Number of cycles decode is idle
system.cpu00.decode.BlockedCycles               27092                       # Number of cycles decode is blocked
system.cpu00.decode.RunCycles                    9450                       # Number of cycles decode is running
system.cpu00.decode.UnblockCycles                 965                       # Number of cycles decode is unblocking
system.cpu00.decode.SquashCycles                  768                       # Number of cycles decode is squashing
system.cpu00.decode.BranchResolved                987                       # Number of times decode resolved a branch
system.cpu00.decode.BranchMispred                 314                       # Number of times decode detected a branch misprediction
system.cpu00.decode.DecodedInsts                63985                       # Number of instructions handled by decode
system.cpu00.decode.SquashedInsts                1142                       # Number of squashed instructions handled by decode
system.cpu00.rename.SquashCycles                  768                       # Number of cycles rename is squashing
system.cpu00.rename.IdleCycles                  16631                       # Number of cycles rename is idle
system.cpu00.rename.BlockCycles                  3054                       # Number of cycles rename is blocking
system.cpu00.rename.serializeStallCycles        13855                       # count of cycles rename stalled for serializing inst
system.cpu00.rename.RunCycles                    9505                       # Number of cycles rename is running
system.cpu00.rename.UnblockCycles               10242                       # Number of cycles rename is unblocking
system.cpu00.rename.RenamedInsts                61804                       # Number of instructions processed by rename
system.cpu00.rename.ROBFullEvents                  10                       # Number of times rename has blocked due to ROB full
system.cpu00.rename.IQFullEvents                  217                       # Number of times rename has blocked due to IQ full
system.cpu00.rename.LQFullEvents                   92                       # Number of times rename has blocked due to LQ full
system.cpu00.rename.SQFullEvents                 9569                       # Number of times rename has blocked due to SQ full
system.cpu00.rename.RenamedOperands             75386                       # Number of destination operands rename has renamed
system.cpu00.rename.RenameLookups              295097                       # Number of register rename lookups that rename has made
system.cpu00.rename.int_rename_lookups          80912                       # Number of integer rename lookups
system.cpu00.rename.fp_rename_lookups              22                       # Number of floating rename lookups
system.cpu00.rename.CommittedMaps               56038                       # Number of HB maps that are committed
system.cpu00.rename.UndoneMaps                  19348                       # Number of HB maps that are undone due to squashing
system.cpu00.rename.serializingInsts              160                       # count of serializing insts renamed
system.cpu00.rename.tempSerializingInsts          160                       # count of temporary serializing insts renamed
system.cpu00.rename.skidInsts                    4854                       # count of insts added to the skid buffer
system.cpu00.memDep0.insertedLoads               8737                       # Number of loads inserted to the mem dependence unit.
system.cpu00.memDep0.insertedStores              8584                       # Number of stores inserted to the mem dependence unit.
system.cpu00.memDep0.conflictingLoads             669                       # Number of conflicting loads.
system.cpu00.memDep0.conflictingStores            602                       # Number of conflicting stores.
system.cpu00.iq.iqInstsAdded                    58339                       # Number of instructions added to the IQ (excludes non-spec)
system.cpu00.iq.iqNonSpecInstsAdded               310                       # Number of non-speculative instructions added to the IQ
system.cpu00.iq.iqInstsIssued                   52881                       # Number of instructions issued
system.cpu00.iq.iqSquashedInstsIssued              70                       # Number of squashed instructions issued
system.cpu00.iq.iqSquashedInstsExamined         13486                       # Number of squashed instructions iterated over during squash; mainly for profiling
system.cpu00.iq.iqSquashedOperandsExamined        34263                       # Number of squashed operands that are examined and possibly removed from graph
system.cpu00.iq.iqSquashedNonSpecRemoved           75                       # Number of squashed non-spec instructions that were removed
system.cpu00.iq.issued_per_cycle::samples        54055                       # Number of insts issued each cycle
system.cpu00.iq.issued_per_cycle::mean       0.978281                       # Number of insts issued each cycle
system.cpu00.iq.issued_per_cycle::stdev      1.906064                       # Number of insts issued each cycle
system.cpu00.iq.issued_per_cycle::underflows            0      0.00%      0.00% # Number of insts issued each cycle
system.cpu00.iq.issued_per_cycle::0             38548     71.31%     71.31% # Number of insts issued each cycle
system.cpu00.iq.issued_per_cycle::1              3894      7.20%     78.52% # Number of insts issued each cycle
system.cpu00.iq.issued_per_cycle::2              2447      4.53%     83.04% # Number of insts issued each cycle
system.cpu00.iq.issued_per_cycle::3              2324      4.30%     87.34% # Number of insts issued each cycle
system.cpu00.iq.issued_per_cycle::4              2476      4.58%     91.92% # Number of insts issued each cycle
system.cpu00.iq.issued_per_cycle::5              1278      2.36%     94.29% # Number of insts issued each cycle
system.cpu00.iq.issued_per_cycle::6              1237      2.29%     96.58% # Number of insts issued each cycle
system.cpu00.iq.issued_per_cycle::7              1403      2.60%     99.17% # Number of insts issued each cycle
system.cpu00.iq.issued_per_cycle::8               448      0.83%    100.00% # Number of insts issued each cycle
system.cpu00.iq.issued_per_cycle::overflows            0      0.00%    100.00% # Number of insts issued each cycle
system.cpu00.iq.issued_per_cycle::min_value            0                       # Number of insts issued each cycle
system.cpu00.iq.issued_per_cycle::max_value            8                       # Number of insts issued each cycle
system.cpu00.iq.issued_per_cycle::total         54055                       # Number of insts issued each cycle
system.cpu00.iq.fu_full::No_OpClass                 0      0.00%      0.00% # attempts to use FU when none available
system.cpu00.iq.fu_full::IntAlu                   910     58.04%     58.04% # attempts to use FU when none available
system.cpu00.iq.fu_full::IntMult                  176     11.22%     69.26% # attempts to use FU when none available
system.cpu00.iq.fu_full::IntDiv                     0      0.00%     69.26% # attempts to use FU when none available
system.cpu00.iq.fu_full::FloatAdd                   0      0.00%     69.26% # attempts to use FU when none available
system.cpu00.iq.fu_full::FloatCmp                   0      0.00%     69.26% # attempts to use FU when none available
system.cpu00.iq.fu_full::FloatCvt                   0      0.00%     69.26% # attempts to use FU when none available
system.cpu00.iq.fu_full::FloatMult                  0      0.00%     69.26% # attempts to use FU when none available
system.cpu00.iq.fu_full::FloatDiv                   0      0.00%     69.26% # attempts to use FU when none available
system.cpu00.iq.fu_full::FloatSqrt                  0      0.00%     69.26% # attempts to use FU when none available
system.cpu00.iq.fu_full::SimdAdd                    0      0.00%     69.26% # attempts to use FU when none available
system.cpu00.iq.fu_full::SimdAddAcc                 0      0.00%     69.26% # attempts to use FU when none available
system.cpu00.iq.fu_full::SimdAlu                    0      0.00%     69.26% # attempts to use FU when none available
system.cpu00.iq.fu_full::SimdCmp                    0      0.00%     69.26% # attempts to use FU when none available
system.cpu00.iq.fu_full::SimdCvt                    0      0.00%     69.26% # attempts to use FU when none available
system.cpu00.iq.fu_full::SimdMisc                   0      0.00%     69.26% # attempts to use FU when none available
system.cpu00.iq.fu_full::SimdMult                   0      0.00%     69.26% # attempts to use FU when none available
system.cpu00.iq.fu_full::SimdMultAcc                0      0.00%     69.26% # attempts to use FU when none available
system.cpu00.iq.fu_full::SimdShift                  0      0.00%     69.26% # attempts to use FU when none available
system.cpu00.iq.fu_full::SimdShiftAcc               0      0.00%     69.26% # attempts to use FU when none available
system.cpu00.iq.fu_full::SimdSqrt                   0      0.00%     69.26% # attempts to use FU when none available
system.cpu00.iq.fu_full::SimdFloatAdd               0      0.00%     69.26% # attempts to use FU when none available
system.cpu00.iq.fu_full::SimdFloatAlu               0      0.00%     69.26% # attempts to use FU when none available
system.cpu00.iq.fu_full::SimdFloatCmp               0      0.00%     69.26% # attempts to use FU when none available
system.cpu00.iq.fu_full::SimdFloatCvt               0      0.00%     69.26% # attempts to use FU when none available
system.cpu00.iq.fu_full::SimdFloatDiv               0      0.00%     69.26% # attempts to use FU when none available
system.cpu00.iq.fu_full::SimdFloatMisc              0      0.00%     69.26% # attempts to use FU when none available
system.cpu00.iq.fu_full::SimdFloatMult              0      0.00%     69.26% # attempts to use FU when none available
system.cpu00.iq.fu_full::SimdFloatMultAcc            0      0.00%     69.26% # attempts to use FU when none available
system.cpu00.iq.fu_full::SimdFloatSqrt              0      0.00%     69.26% # attempts to use FU when none available
system.cpu00.iq.fu_full::MemRead                  209     13.33%     82.59% # attempts to use FU when none available
system.cpu00.iq.fu_full::MemWrite                 273     17.41%    100.00% # attempts to use FU when none available
system.cpu00.iq.fu_full::IprAccess                  0      0.00%    100.00% # attempts to use FU when none available
system.cpu00.iq.fu_full::InstPrefetch               0      0.00%    100.00% # attempts to use FU when none available
system.cpu00.iq.FU_type_0::No_OpClass               0      0.00%      0.00% # Type of FU issued
system.cpu00.iq.FU_type_0::IntAlu               35430     67.00%     67.00% # Type of FU issued
system.cpu00.iq.FU_type_0::IntMult               1376      2.60%     69.60% # Type of FU issued
system.cpu00.iq.FU_type_0::IntDiv                   0      0.00%     69.60% # Type of FU issued
system.cpu00.iq.FU_type_0::FloatAdd                 0      0.00%     69.60% # Type of FU issued
[...]
system.membus.pkt_count_system.cpu07.icache.mem_side::system.mem_ctrls.port          102                       # Packet count per connected master and slave (bytes)
system.membus.pkt_count_system.cpu07.dcache.mem_side::system.mem_ctrls.port          119                       # Packet count per connected master and slave (bytes)
system.membus.pkt_count_system.cpu08.icache.mem_side::system.mem_ctrls.port          104                       # Packet count per connected master and slave (bytes)
system.membus.pkt_count_system.cpu08.dcache.mem_side::system.mem_ctrls.port          101                       # Packet count per connected master and slave (bytes)
system.membus.pkt_count_system.cpu09.icache.mem_side::system.mem_ctrls.port          102                       # Packet count per connected master and slave (bytes)
system.membus.pkt_count_system.cpu09.dcache.mem_side::system.mem_ctrls.port          118                       # Packet count per connected master and slave (bytes)
system.membus.pkt_count_system.cpu10.icache.mem_side::system.mem_ctrls.port          102                       # Packet count per connected master and slave (bytes)
system.membus.pkt_count_system.cpu10.dcache.mem_side::system.mem_ctrls.port          110                       # Packet count per connected master and slave (bytes)
system.membus.pkt_count_system.cpu11.icache.mem_side::system.mem_ctrls.port          106                       # Packet count per connected master and slave (bytes)
system.membus.pkt_count_system.cpu11.dcache.mem_side::system.mem_ctrls.port          106                       # Packet count per connected master and slave (bytes)
system.membus.pkt_count_system.cpu12.icache.mem_side::system.mem_ctrls.port          110                       # Packet count per connected master and slave (bytes)
system.membus.pkt_count_system.cpu12.dcache.mem_side::system.mem_ctrls.port          112                       # Packet count per connected master and slave (bytes)
system.membus.pkt_count_system.cpu13.icache.mem_side::system.mem_ctrls.port          102                       # Packet count per connected master and slave (bytes)
system.membus.pkt_count_system.cpu13.dcache.mem_side::system.mem_ctrls.port          103                       # Packet count per connected master and slave (bytes)
system.membus.pkt_count_system.cpu14.icache.mem_side::system.mem_ctrls.port          112                       # Packet count per connected master and slave (bytes)
system.membus.pkt_count_system.cpu14.dcache.mem_side::system.mem_ctrls.port          112                       # Packet count per connected master and slave (bytes)
system.membus.pkt_count_system.cpu15.icache.mem_side::system.mem_ctrls.port          100                       # Packet count per connected master and slave (bytes)
system.membus.pkt_count_system.cpu15.dcache.mem_side::system.mem_ctrls.port          107                       # Packet count per connected master and slave (bytes)
system.membus.pkt_count::total                   5361                       # Packet count per connected master and slave (bytes)
system.membus.pkt_size_system.cpu00.icache.mem_side::system.mem_ctrls.port        38080                       # Cumulative packet size per connected master and slave (bytes)
system.membus.pkt_size_system.cpu00.dcache.mem_side::system.mem_ctrls.port        29952                       # Cumulative packet size per connected master and slave (bytes)
system.membus.pkt_size_system.cpu01.icache.mem_side::system.mem_ctrls.port         3328                       # Cumulative packet size per connected master and slave (bytes)
system.membus.pkt_size_system.cpu01.dcache.mem_side::system.mem_ctrls.port         1152                       # Cumulative packet size per connected master and slave (bytes)
system.membus.pkt_size_system.cpu02.icache.mem_side::system.mem_ctrls.port         3328                       # Cumulative packet size per connected master and slave (bytes)
system.membus.pkt_size_system.cpu02.dcache.mem_side::system.mem_ctrls.port         1152                       # Cumulative packet size per connected master and slave (bytes)
system.membus.pkt_size_system.cpu03.icache.mem_side::system.mem_ctrls.port         3264                       # Cumulative packet size per connected master and slave (bytes)
system.membus.pkt_size_system.cpu03.dcache.mem_side::system.mem_ctrls.port         1088                       # Cumulative packet size per connected master and slave (bytes)
system.membus.pkt_size_system.cpu04.icache.mem_side::system.mem_ctrls.port         3328                       # Cumulative packet size per connected master and slave (bytes)
system.membus.pkt_size_system.cpu04.dcache.mem_side::system.mem_ctrls.port         1152                       # Cumulative packet size per connected master and slave (bytes)
system.membus.pkt_size_system.cpu05.icache.mem_side::system.mem_ctrls.port         3264                       # Cumulative packet size per connected master and slave (bytes)
system.membus.pkt_size_system.cpu05.dcache.mem_side::system.mem_ctrls.port         1152                       # Cumulative packet size per connected master and slave (bytes)
system.membus.pkt_size_system.cpu06.icache.mem_side::system.mem_ctrls.port         3328                       # Cumulative packet size per connected master and slave (bytes)
system.membus.pkt_size_system.cpu06.dcache.mem_side::system.mem_ctrls.port         1152                       # Cumulative packet size per connected master and slave (bytes)
system.membus.pkt_size_system.cpu07.icache.mem_side::system.mem_ctrls.port         3264                       # Cumulative packet size per connected master and slave (bytes)
system.membus.pkt_size_system.cpu07.dcache.mem_side::system.mem_ctrls.port         1088                       # Cumulative packet size per connected master and slave (bytes)
system.membus.pkt_size_system.cpu08.icache.mem_side::system.mem_ctrls.port         3328                       # Cumulative packet size per connected master and slave (bytes)
system.membus.pkt_size_system.cpu08.dcache.mem_side::system.mem_ctrls.port         1152                       # Cumulative packet size per connected master and slave (bytes)
system.membus.pkt_size_system.cpu09.icache.mem_side::system.mem_ctrls.port         3264                       # Cumulative packet size per connected master and slave (bytes)
system.membus.pkt_size_system.cpu09.dcache.mem_side::system.mem_ctrls.port         1088                       # Cumulative packet size per connected master and slave (bytes)
system.membus.pkt_size_system.cpu10.icache.mem_side::system.mem_ctrls.port         3264                       # Cumulative packet size per connected master and slave (bytes)
system.membus.pkt_size_system.cpu10.dcache.mem_side::system.mem_ctrls.port         1152                       # Cumulative packet size per connected master and slave (bytes)
system.membus.pkt_size_system.cpu11.icache.mem_side::system.mem_ctrls.port         3392                       # Cumulative packet size per connected master and slave (bytes)
system.membus.pkt_size_system.cpu11.dcache.mem_side::system.mem_ctrls.port         1088                       # Cumulative packet size per connected master and slave (bytes)
system.membus.pkt_size_system.cpu12.icache.mem_side::system.mem_ctrls.port         3520                       # Cumulative packet size per connected master and slave (bytes)
system.membus.pkt_size_system.cpu12.dcache.mem_side::system.mem_ctrls.port         1216                       # Cumulative packet size per connected master and slave (bytes)
system.membus.pkt_size_system.cpu13.icache.mem_side::system.mem_ctrls.port         3264                       # Cumulative packet size per connected master and slave (bytes)
system.membus.pkt_size_system.cpu13.dcache.mem_side::system.mem_ctrls.port         1088                       # Cumulative packet size per connected master and slave (bytes)
system.membus.pkt_size_system.cpu14.icache.mem_side::system.mem_ctrls.port         3584                       # Cumulative packet size per connected master and slave (bytes)
system.membus.pkt_size_system.cpu14.dcache.mem_side::system.mem_ctrls.port         1152                       # Cumulative packet size per connected master and slave (bytes)
system.membus.pkt_size_system.cpu15.icache.mem_side::system.mem_ctrls.port         3200                       # Cumulative packet size per connected master and slave (bytes)
system.membus.pkt_size_system.cpu15.dcache.mem_side::system.mem_ctrls.port         1152                       # Cumulative packet size per connected master and slave (bytes)
system.membus.pkt_size::total                  134976                       # Cumulative packet size per connected master and slave (bytes)
system.membus.snoops                             1123                       # Total snoops (count)
system.membus.snoop_fanout::samples              3262                       # Request fanout histogram
system.membus.snoop_fanout::mean                   31                       # Request fanout histogram
system.membus.snoop_fanout::stdev                   0                       # Request fanout histogram
system.membus.snoop_fanout::underflows              0      0.00%      0.00% # Request fanout histogram
system.membus.snoop_fanout::0                       0      0.00%      0.00% # Request fanout histogram
system.membus.snoop_fanout::1                       0      0.00%      0.00% # Request fanout histogram
system.membus.snoop_fanout::2                       0      0.00%      0.00% # Request fanout histogram
system.membus.snoop_fanout::3                       0      0.00%      0.00% # Request fanout histogram
system.membus.snoop_fanout::4                       0      0.00%      0.00% # Request fanout histogram
system.membus.snoop_fanout::5                       0      0.00%      0.00% # Request fanout histogram
system.membus.snoop_fanout::6                       0      0.00%      0.00% # Request fanout histogram
system.membus.snoop_fanout::7                       0      0.00%      0.00% # Request fanout histogram
system.membus.snoop_fanout::8                       0      0.00%      0.00% # Request fanout histogram
system.membus.snoop_fanout::9                       0      0.00%      0.00% # Request fanout histogram
system.membus.snoop_fanout::10                      0      0.00%      0.00% # Request fanout histogram
system.membus.snoop_fanout::11                      0      0.00%      0.00% # Request fanout histogram
system.membus.snoop_fanout::12                      0      0.00%      0.00% # Request fanout histogram
system.membus.snoop_fanout::13                      0      0.00%      0.00% # Request fanout histogram
system.membus.snoop_fanout::14                      0      0.00%      0.00% # Request fanout histogram
system.membus.snoop_fanout::15                      0      0.00%      0.00% # Request fanout histogram
system.membus.snoop_fanout::16                      0      0.00%      0.00% # Request fanout histogram
system.membus.snoop_fanout::17                      0      0.00%      0.00% # Request fanout histogram
system.membus.snoop_fanout::18                      0      0.00%      0.00% # Request fanout histogram
system.membus.snoop_fanout::19                      0      0.00%      0.00% # Request fanout histogram
system.membus.snoop_fanout::20                      0      0.00%      0.00% # Request fanout histogram
system.membus.snoop_fanout::21                      0      0.00%      0.00% # Request fanout histogram
system.membus.snoop_fanout::22                      0      0.00%      0.00% # Request fanout histogram
system.membus.snoop_fanout::23                      0      0.00%      0.00% # Request fanout histogram
system.membus.snoop_fanout::24                      0      0.00%      0.00% # Request fanout histogram
system.membus.snoop_fanout::25                      0      0.00%      0.00% # Request fanout histogram
system.membus.snoop_fanout::26                      0      0.00%      0.00% # Request fanout histogram
system.membus.snoop_fanout::27                      0      0.00%      0.00% # Request fanout histogram
system.membus.snoop_fanout::28                      0      0.00%      0.00% # Request fanout histogram
system.membus.snoop_fanout::29                      0      0.00%      0.00% # Request fanout histogram
system.membus.snoop_fanout::30                      0      0.00%      0.00% # Request fanout histogram
system.membus.snoop_fanout::31                   3262    100.00%    100.00% # Request fanout histogram
system.membus.snoop_fanout::32                      0      0.00%    100.00% # Request fanout histogram
system.membus.snoop_fanout::overflows               0      0.00%    100.00% # Request fanout histogram
system.membus.snoop_fanout::min_value              31                       # Request fanout histogram
system.membus.snoop_fanout::max_value              31                       # Request fanout histogram
system.membus.snoop_fanout::total                3262                       # Request fanout histogram
system.membus.reqLayer0.occupancy             3889482                       # Layer occupancy (ticks)
system.membus.reqLayer0.utilization               8.7                       # Layer utilization (%)
system.membus.respLayer1.occupancy            3157749                       # Layer occupancy (ticks)
system.membus.respLayer1.utilization              7.0                       # Layer utilization (%)
system.membus.respLayer2.occupancy            2438731                       # Layer occupancy (ticks)
system.membus.respLayer2.utilization              5.4                       # Layer utilization (%)
system.membus.respLayer5.occupancy             277250                       # Layer occupancy (ticks)
system.membus.respLayer5.utilization              0.6                       # Layer utilization (%)
system.membus.respLayer6.occupancy             440447                       # Layer occupancy (ticks)
system.membus.respLayer6.utilization              1.0                       # Layer utilization (%)
system.membus.respLayer9.occupancy             277500                       # Layer occupancy (ticks)
system.membus.respLayer9.utilization              0.6                       # Layer utilization (%)
system.membus.respLayer10.occupancy            460204                       # Layer occupancy (ticks)
system.membus.respLayer10.utilization             1.0                       # Layer utilization (%)
system.membus.respLayer13.occupancy            271250                       # Layer occupancy (ticks)
system.membus.respLayer13.utilization             0.6                       # Layer utilization (%)
system.membus.respLayer14.occupancy            504704                       # Layer occupancy (ticks)
system.membus.respLayer14.utilization             1.1                       # Layer utilization (%)
system.membus.respLayer17.occupancy            278250                       # Layer occupancy (ticks)
system.membus.respLayer17.utilization             0.6                       # Layer utilization (%)
system.membus.respLayer18.occupancy            506199                       # Layer occupancy (ticks)
system.membus.respLayer18.utilization             1.1                       # Layer utilization (%)
system.membus.respLayer21.occupancy            270249                       # Layer occupancy (ticks)
system.membus.respLayer21.utilization             0.6                       # Layer utilization (%)
system.membus.respLayer22.occupancy            470950                       # Layer occupancy (ticks)
system.membus.respLayer22.utilization             1.0                       # Layer utilization (%)
system.membus.respLayer25.occupancy            277500                       # Layer occupancy (ticks)
system.membus.respLayer25.utilization             0.6                       # Layer utilization (%)
system.membus.respLayer26.occupancy            496216                       # Layer occupancy (ticks)
system.membus.respLayer26.utilization             1.1                       # Layer utilization (%)
system.membus.respLayer29.occupancy            271250                       # Layer occupancy (ticks)
system.membus.respLayer29.utilization             0.6                       # Layer utilization (%)
system.membus.respLayer30.occupancy            512965                       # Layer occupancy (ticks)
system.membus.respLayer30.utilization             1.1                       # Layer utilization (%)
system.membus.respLayer33.occupancy            276750                       # Layer occupancy (ticks)
system.membus.respLayer33.utilization             0.6                       # Layer utilization (%)
system.membus.respLayer34.occupancy            428200                       # Layer occupancy (ticks)
system.membus.respLayer34.utilization             1.0                       # Layer utilization (%)
system.membus.respLayer37.occupancy            273000                       # Layer occupancy (ticks)
system.membus.respLayer37.utilization             0.6                       # Layer utilization (%)
system.membus.respLayer38.occupancy            521210                       # Layer occupancy (ticks)
system.membus.respLayer38.utilization             1.2                       # Layer utilization (%)
system.membus.respLayer41.occupancy            273249                       # Layer occupancy (ticks)
system.membus.respLayer41.utilization             0.6                       # Layer utilization (%)
system.membus.respLayer42.occupancy            474962                       # Layer occupancy (ticks)
system.membus.respLayer42.utilization             1.1                       # Layer utilization (%)
system.membus.respLayer45.occupancy            283750                       # Layer occupancy (ticks)
system.membus.respLayer45.utilization             0.6                       # Layer utilization (%)
system.membus.respLayer46.occupancy            457450                       # Layer occupancy (ticks)
system.membus.respLayer46.utilization             1.0                       # Layer utilization (%)
system.membus.respLayer49.occupancy            293750                       # Layer occupancy (ticks)
system.membus.respLayer49.utilization             0.7                       # Layer utilization (%)
system.membus.respLayer50.occupancy            477210                       # Layer occupancy (ticks)
system.membus.respLayer50.utilization             1.1                       # Layer utilization (%)
system.membus.respLayer53.occupancy            273749                       # Layer occupancy (ticks)
system.membus.respLayer53.utilization             0.6                       # Layer utilization (%)
system.membus.respLayer54.occupancy            434732                       # Layer occupancy (ticks)
system.membus.respLayer54.utilization             1.0                       # Layer utilization (%)
system.membus.respLayer57.occupancy            296500                       # Layer occupancy (ticks)
system.membus.respLayer57.utilization             0.7                       # Layer utilization (%)
system.membus.respLayer58.occupancy            477465                       # Layer occupancy (ticks)
system.membus.respLayer58.utilization             1.1                       # Layer utilization (%)
system.membus.respLayer61.occupancy            269250                       # Layer occupancy (ticks)
system.membus.respLayer61.utilization             0.6                       # Layer utilization (%)
system.membus.respLayer62.occupancy            440473                       # Layer occupancy (ticks)
system.membus.respLayer62.utilization             1.0                       # Layer utilization (%)

---------- End Simulation Statistics   ----------
