
---------- Begin Simulation Statistics ----------
sim_seconds                                  0.000038                       # Number of seconds simulated
sim_ticks                                    37914500                       # Number of ticks simulated
final_tick                                   37914500                       # Number of ticks from beginning of simulation (restored from checkpoints and never reset)
sim_freq                                 1000000000000                       # Frequency of simulated ticks
host_inst_rate                                 166217                       # Simulator instruction rate (inst/s)
host_op_rate                                   175717                       # Simulator op (including micro ops) rate (op/s)
host_tick_rate                               36001445                       # Simulator tick rate (ticks/s)
host_mem_usage                                 679188                       # Number of bytes of host memory used
host_seconds                                     1.05                       # Real time elapsed on the host
sim_insts                                      175044                       # Number of instructions simulated
sim_ops                                        185051                       # Number of ops (including micro ops) simulated
system.voltage_domain.voltage                       1                       # Voltage in Volts
system.clk_domain.clock                          1000                       # Clock period in ticks
system.mem_ctrls.bytes_read::cpu0.inst          38336                       # Number of bytes read from this memory
system.mem_ctrls.bytes_read::cpu0.data          21632                       # Number of bytes read from this memory
system.mem_ctrls.bytes_read::cpu1.inst           3456                       # Number of bytes read from this memory
system.mem_ctrls.bytes_read::cpu1.data           1152                       # Number of bytes read from this memory
system.mem_ctrls.bytes_read::cpu2.inst           3456                       # Number of bytes read from this memory
system.mem_ctrls.bytes_read::cpu2.data           1152                       # Number of bytes read from this memory
system.mem_ctrls.bytes_read::cpu3.inst           3392                       # Number of bytes read from this memory
system.mem_ctrls.bytes_read::cpu3.data           1152                       # Number of bytes read from this memory
system.mem_ctrls.bytes_read::cpu4.inst           3328                       # Number of bytes read from this memory
system.mem_ctrls.bytes_read::cpu4.data           1152                       # Number of bytes read from this memory
system.mem_ctrls.bytes_read::cpu5.inst           3456                       # Number of bytes read from this memory
system.mem_ctrls.bytes_read::cpu5.data           1088                       # Number of bytes read from this memory
system.mem_ctrls.bytes_read::cpu6.inst           3712                       # Number of bytes read from this memory
system.mem_ctrls.bytes_read::cpu6.data           1152                       # Number of bytes read from this memory
system.mem_ctrls.bytes_read::cpu7.inst           3392                       # Number of bytes read from this memory
system.mem_ctrls.bytes_read::cpu7.data           1152                       # Number of bytes read from this memory
system.mem_ctrls.bytes_read::total              92160                       # Number of bytes read from this memory
system.mem_ctrls.bytes_inst_read::cpu0.inst        38336                       # Number of instructions bytes read from this memory
system.mem_ctrls.bytes_inst_read::cpu1.inst         3456                       # Number of instructions bytes read from this memory
system.mem_ctrls.bytes_inst_read::cpu2.inst         3456                       # Number of instructions bytes read from this memory
system.mem_ctrls.bytes_inst_read::cpu3.inst         3392                       # Number of instructions bytes read from this memory
system.mem_ctrls.bytes_inst_read::cpu4.inst         3328                       # Number of instructions bytes read from this memory
system.mem_ctrls.bytes_inst_read::cpu5.inst         3456                       # Number of instructions bytes read from this memory
system.mem_ctrls.bytes_inst_read::cpu6.inst         3712                       # Number of instructions bytes read from this memory
system.mem_ctrls.bytes_inst_read::cpu7.inst         3392                       # Number of instructions bytes read from this memory
system.mem_ctrls.bytes_inst_read::total         62528                       # Number of instructions bytes read from this memory
system.mem_ctrls.bytes_written::writebacks          640                       # Number of bytes written to this memory
system.mem_ctrls.bytes_written::total             640                       # Number of bytes written to this memory
system.mem_ctrls.num_reads::cpu0.inst             599                       # Number of read requests responded to by this memory
system.mem_ctrls.num_reads::cpu0.data             338                       # Number of read requests responded to by this memory
system.mem_ctrls.num_reads::cpu1.inst              54                       # Number of read requests responded to by this memory
system.mem_ctrls.num_reads::cpu1.data              18                       # Number of read requests responded to by this memory
system.mem_ctrls.num_reads::cpu2.inst              54                       # Number of read requests responded to by this memory
system.mem_ctrls.num_reads::cpu2.data              18                       # Number of read requests responded to by this memory
system.mem_ctrls.num_reads::cpu3.inst              53                       # Number of read requests responded to by this memory
system.mem_ctrls.num_reads::cpu3.data              18                       # Number of read requests responded to by this memory
system.mem_ctrls.num_reads::cpu4.inst              52                       # Number of read requests responded to by this memory
system.mem_ctrls.num_reads::cpu4.data              18                       # Number of read requests responded to by this memory
system.mem_ctrls.num_reads::cpu5.inst              54                       # Number of read requests responded to by this memory
system.mem_ctrls.num_reads::cpu5.data              17                       # Number of read requests responded to by this memory
system.mem_ctrls.num_reads::cpu6.inst              58                       # Number of read requests responded to by this memory
system.mem_ctrls.num_reads::cpu6.data              18                       # Number of read requests responded to by this memory
system.mem_ctrls.num_reads::cpu7.inst              53                       # Number of read requests responded to by this memory
system.mem_ctrls.num_reads::cpu7.data              18                       # Number of read requests responded to by this memory
system.mem_ctrls.num_reads::total                1440                       # Number of read requests responded to by this memory
system.mem_ctrls.num_writes::writebacks            10                       # Number of write requests responded to by this memory
system.mem_ctrls.num_writes::total                 10                       # Number of write requests responded to by this memory
system.mem_ctrls.bw_read::cpu0.inst        1011117119                       # Total read bandwidth from this memory (bytes/s)
system.mem_ctrls.bw_read::cpu0.data         570546888                       # Total read bandwidth from this memory (bytes/s)
system.mem_ctrls.bw_read::cpu1.inst          91152461                       # Total read bandwidth from this memory (bytes/s)
system.mem_ctrls.bw_read::cpu1.data          30384154                       # Total read bandwidth from this memory (bytes/s)
system.mem_ctrls.bw_read::cpu2.inst          91152461                       # Total read bandwidth from this memory (bytes/s)
system.mem_ctrls.bw_read::cpu2.data          30384154                       # Total read bandwidth from this memory (bytes/s)
system.mem_ctrls.bw_read::cpu3.inst          89464453                       # Total read bandwidth from this memory (bytes/s)
system.mem_ctrls.bw_read::cpu3.data          30384154                       # Total read bandwidth from this memory (bytes/s)
system.mem_ctrls.bw_read::cpu4.inst          87776444                       # Total read bandwidth from this memory (bytes/s)
system.mem_ctrls.bw_read::cpu4.data          30384154                       # Total read bandwidth from this memory (bytes/s)
system.mem_ctrls.bw_read::cpu5.inst          91152461                       # Total read bandwidth from this memory (bytes/s)
system.mem_ctrls.bw_read::cpu5.data          28696145                       # Total read bandwidth from this memory (bytes/s)
system.mem_ctrls.bw_read::cpu6.inst          97904496                       # Total read bandwidth from this memory (bytes/s)
system.mem_ctrls.bw_read::cpu6.data          30384154                       # Total read bandwidth from this memory (bytes/s)
system.mem_ctrls.bw_read::cpu7.inst          89464453                       # Total read bandwidth from this memory (bytes/s)
system.mem_ctrls.bw_read::cpu7.data          30384154                       # Total read bandwidth from this memory (bytes/s)
system.mem_ctrls.bw_read::total            2430732306                       # Total read bandwidth from this memory (bytes/s)
system.mem_ctrls.bw_inst_read::cpu0.inst   1011117119                       # Instruction read bandwidth from this memory (bytes/s)
system.mem_ctrls.bw_inst_read::cpu1.inst     91152461                       # Instruction read bandwidth from this memory (bytes/s)
system.mem_ctrls.bw_inst_read::cpu2.inst     91152461                       # Instruction read bandwidth from this memory (bytes/s)
system.mem_ctrls.bw_inst_read::cpu3.inst     89464453                       # Instruction read bandwidth from this memory (bytes/s)
system.mem_ctrls.bw_inst_read::cpu4.inst     87776444                       # Instruction read bandwidth from this memory (bytes/s)
system.mem_ctrls.bw_inst_read::cpu5.inst     91152461                       # Instruction read bandwidth from this memory (bytes/s)
system.mem_ctrls.bw_inst_read::cpu6.inst     97904496                       # Instruction read bandwidth from this memory (bytes/s)
system.mem_ctrls.bw_inst_read::cpu7.inst     89464453                       # Instruction read bandwidth from this memory (bytes/s)
system.mem_ctrls.bw_inst_read::total       1649184349                       # Instruction read bandwidth from this memory (bytes/s)
system.mem_ctrls.bw_write::writebacks        16880085                       # Write bandwidth from this memory (bytes/s)
system.mem_ctrls.bw_write::total             16880085                       # Write bandwidth from this memory (bytes/s)
system.mem_ctrls.bw_total::writebacks        16880085                       # Total bandwidth to/from this memory (bytes/s)
system.mem_ctrls.bw_total::cpu0.inst       1011117119                       # Total bandwidth to/from this memory (bytes/s)
system.mem_ctrls.bw_total::cpu0.data        570546888                       # Total bandwidth to/from this memory (bytes/s)
system.mem_ctrls.bw_total::cpu1.inst         91152461                       # Total bandwidth to/from this memory (bytes/s)
system.mem_ctrls.bw_total::cpu1.data         30384154                       # Total bandwidth to/from this memory (bytes/s)
system.mem_ctrls.bw_total::cpu2.inst         91152461                       # Total bandwidth to/from this memory (bytes/s)
system.mem_ctrls.bw_total::cpu2.data         30384154                       # Total bandwidth to/from this memory (bytes/s)
system.mem_ctrls.bw_total::cpu3.inst         89464453                       # Total bandwidth to/from this memory (bytes/s)
system.mem_ctrls.bw_total::cpu3.data         30384154                       # Total bandwidth to/from this memory (bytes/s)
system.mem_ctrls.bw_total::cpu4.inst         87776444                       # Total bandwidth to/from this memory (bytes/s)
system.mem_ctrls.bw_total::cpu4.data         30384154                       # Total bandwidth to/from this memory (bytes/s)
system.mem_ctrls.bw_total::cpu5.inst         91152461                       # Total bandwidth to/from this memory (bytes/s)
system.mem_ctrls.bw_total::cpu5.data         28696145                       # Total bandwidth to/from this memory (bytes/s)
system.mem_ctrls.bw_total::cpu6.inst         97904496                       # Total bandwidth to/from this memory (bytes/s)
system.mem_ctrls.bw_total::cpu6.data         30384154                       # Total bandwidth to/from this memory (bytes/s)
system.mem_ctrls.bw_total::cpu7.inst         89464453                       # Total bandwidth to/from this memory (bytes/s)
system.mem_ctrls.bw_total::cpu7.data         30384154                       # Total bandwidth to/from this memory (bytes/s)
system.mem_ctrls.bw_total::total           2447612391                       # Total bandwidth to/from this memory (bytes/s)
system.mem_ctrls.readReqs                        1441                       # Number of read requests accepted
system.mem_ctrls.writeReqs                         10                       # Number of write requests accepted
system.mem_ctrls.readBursts                      1441                       # Number of DRAM read bursts, including those serviced by the write queue
system.mem_ctrls.writeBursts                       10                       # Number of DRAM write bursts, including those merged in the write queue
system.mem_ctrls.bytesReadDRAM                  91136                       # Total number of bytes read from DRAM
system.mem_ctrls.bytesReadWrQ                    1088                       # Total number of bytes read from write queue
system.mem_ctrls.bytesWritten                       0                       # Total number of bytes written to DRAM
system.mem_ctrls.bytesReadSys                   92224                       # Total read bytes from the system interface side
system.mem_ctrls.bytesWrittenSys                  640                       # Total written bytes from the system interface side
system.mem_ctrls.servicedByWrQ                     17                       # Number of DRAM read bursts serviced by the write queue
system.mem_ctrls.mergedWrBursts                     1                       # Number of DRAM write bursts merged with an existing one
system.mem_ctrls.neitherReadNorWriteReqs            8                       # Number of requests that are neither read nor write
system.mem_ctrls.perBankRdBursts::0               205                       # Per bank write bursts
system.mem_ctrls.perBankRdBursts::1               363                       # Per bank write bursts
system.mem_ctrls.perBankRdBursts::2               222                       # Per bank write bursts
system.mem_ctrls.perBankRdBursts::3               179                       # Per bank write bursts
system.mem_ctrls.perBankRdBursts::4                50                       # Per bank write bursts
system.mem_ctrls.perBankRdBursts::5                50                       # Per bank write bursts
system.mem_ctrls.perBankRdBursts::6               125                       # Per bank write bursts
system.mem_ctrls.perBankRdBursts::7                33                       # Per bank write bursts
system.mem_ctrls.perBankRdBursts::8                14                       # Per bank write bursts
system.mem_ctrls.perBankRdBursts::9                10                       # Per bank write bursts
system.mem_ctrls.perBankRdBursts::10                0                       # Per bank write bursts
system.mem_ctrls.perBankRdBursts::11               14                       # Per bank write bursts
system.mem_ctrls.perBankRdBursts::12                9                       # Per bank write bursts
system.mem_ctrls.perBankRdBursts::13               38                       # Per bank write bursts
system.mem_ctrls.perBankRdBursts::14               40                       # Per bank write bursts
system.mem_ctrls.perBankRdBursts::15               72                       # Per bank write bursts
system.mem_ctrls.perBankWrBursts::0                 0                       # Per bank write bursts
system.mem_ctrls.perBankWrBursts::1                 0                       # Per bank write bursts
system.mem_ctrls.perBankWrBursts::2                 0                       # Per bank write bursts
system.mem_ctrls.perBankWrBursts::3                 0                       # Per bank write bursts
system.mem_ctrls.perBankWrBursts::4                 0                       # Per bank write bursts
system.mem_ctrls.perBankWrBursts::5                 0                       # Per bank write bursts
system.mem_ctrls.perBankWrBursts::6                 0                       # Per bank write bursts
system.mem_ctrls.perBankWrBursts::7                 0                       # Per bank write bursts
system.mem_ctrls.perBankWrBursts::8                 0                       # Per bank write bursts
system.mem_ctrls.perBankWrBursts::9                 0                       # Per bank write bursts
system.mem_ctrls.perBankWrBursts::10                0                       # Per bank write bursts
system.mem_ctrls.perBankWrBursts::11                0                       # Per bank write bursts
system.mem_ctrls.perBankWrBursts::12                0                       # Per bank write bursts
system.mem_ctrls.perBankWrBursts::13                0                       # Per bank write bursts
system.mem_ctrls.perBankWrBursts::14                0                       # Per bank write bursts
system.mem_ctrls.perBankWrBursts::15                0                       # Per bank write bursts
system.mem_ctrls.numRdRetry                         0                       # Number of times read queue was full causing retry
system.mem_ctrls.numWrRetry                         0                       # Number of times write queue was full causing retry
system.mem_ctrls.totGap                      37907000                       # Total gap between requests
system.mem_ctrls.readPktSize::0                     0                       # Read request sizes (log2)
system.mem_ctrls.readPktSize::1                     0                       # Read request sizes (log2)
system.mem_ctrls.readPktSize::2                     0                       # Read request sizes (log2)
system.mem_ctrls.readPktSize::3                     0                       # Read request sizes (log2)
system.mem_ctrls.readPktSize::4                     0                       # Read request sizes (log2)
system.mem_ctrls.readPktSize::5                     0                       # Read request sizes (log2)
system.mem_ctrls.readPktSize::6                  1441                       # Read request sizes (log2)
system.mem_ctrls.writePktSize::0                    0                       # Write request sizes (log2)
system.mem_ctrls.writePktSize::1                    0                       # Write request sizes (log2)
system.mem_ctrls.writePktSize::2                    0                       # Write request sizes (log2)
system.mem_ctrls.writePktSize::3                    0                       # Write request sizes (log2)
system.mem_ctrls.writePktSize::4                    0                       # Write request sizes (log2)
system.mem_ctrls.writePktSize::5                    0                       # Write request sizes (log2)
system.mem_ctrls.writePktSize::6                   10                       # Write request sizes (log2)
system.mem_ctrls.rdQLenPdf::0                     483                       # What read queue length does an incoming req see
system.mem_ctrls.rdQLenPdf::1                     329                       # What read queue length does an incoming req see
system.mem_ctrls.rdQLenPdf::2                     131                       # What read queue length does an incoming req see
system.mem_ctrls.rdQLenPdf::3                      78                       # What read queue length does an incoming req see
system.mem_ctrls.rdQLenPdf::4                      60                       # What read queue length does an incoming req see
system.mem_ctrls.rdQLenPdf::5                      50                       # What read queue length does an incoming req see
system.mem_ctrls.rdQLenPdf::6                      43                       # What read queue length does an incoming req see
system.mem_ctrls.rdQLenPdf::7                      54                       # What read queue length does an incoming req see
system.mem_ctrls.rdQLenPdf::8                      53                       # What read queue length does an incoming req see
system.mem_ctrls.rdQLenPdf::9                      42                       # What read queue length does an incoming req see
system.mem_ctrls.rdQLenPdf::10                     33                       # What read queue length does an incoming req see
system.mem_ctrls.rdQLenPdf::11                     21                       # What read queue length does an incoming req see
system.mem_ctrls.rdQLenPdf::12                     16                       # What read queue length does an incoming req see
system.mem_ctrls.rdQLenPdf::13                     11                       # What read queue length does an incoming req see
system.mem_ctrls.rdQLenPdf::14                     11                       # What read queue length does an incoming req see
system.mem_ctrls.rdQLenPdf::15                      3                       # What read queue length does an incoming req see
system.mem_ctrls.rdQLenPdf::16                      2                       # What read queue length does an incoming req see
system.mem_ctrls.rdQLenPdf::17                      2                       # What read queue length does an incoming req see
system.mem_ctrls.rdQLenPdf::18                      2                       # What read queue length does an incoming req see
system.mem_ctrls.rdQLenPdf::19                      0                       # What read queue length does an incoming req see
system.mem_ctrls.rdQLenPdf::20                      0                       # What read queue length does an incoming req see
system.mem_ctrls.rdQLenPdf::21                      0                       # What read queue length does an incoming req see
system.mem_ctrls.rdQLenPdf::22                      0                       # What read queue length does an incoming req see
system.mem_ctrls.rdQLenPdf::23                      0                       # What read queue length does an incoming req see
system.mem_ctrls.rdQLenPdf::24                      0                       # What read queue length does an incoming req see
system.mem_ctrls.rdQLenPdf::25                      0                       # What read queue length does an incoming req see
system.mem_ctrls.rdQLenPdf::26                      0                       # What read queue length does an incoming req see
system.mem_ctrls.rdQLenPdf::27                      0                       # What read queue length does an incoming req see
system.mem_ctrls.rdQLenPdf::28                      0                       # What read queue length does an incoming req see
system.mem_ctrls.rdQLenPdf::29                      0                       # What read queue length does an incoming req see
system.mem_ctrls.rdQLenPdf::30                      0                       # What read queue length does an incoming req see
system.mem_ctrls.rdQLenPdf::31                      0                       # What read queue length does an incoming req see
system.mem_ctrls.wrQLenPdf::0                       1                       # What write queue length does an incoming req see
system.mem_ctrls.wrQLenPdf::1                       1                       # What write queue length does an incoming req see
system.mem_ctrls.wrQLenPdf::2                       1                       # What write queue length does an incoming req see
system.mem_ctrls.wrQLenPdf::3                       1                       # What write queue length does an incoming req see
system.mem_ctrls.wrQLenPdf::4                       1                       # What write queue length does an incoming req see
system.mem_ctrls.wrQLenPdf::5                       1                       # What write queue length does an incoming req see
system.mem_ctrls.wrQLenPdf::6                       1                       # What write queue length does an incoming req see
system.mem_ctrls.wrQLenPdf::7                       1                       # What write queue length does an incoming req see
system.mem_ctrls.wrQLenPdf::8                       1                       # What write queue length does an incoming req see
system.mem_ctrls.wrQLenPdf::9                       0                       # What write queue length does an incoming req see
system.mem_ctrls.wrQLenPdf::10                      0                       # What write queue length does an incoming req see
system.mem_ctrls.wrQLenPdf::11                      0                       # What write queue length does an incoming req see
system.mem_ctrls.wrQLenPdf::12                      0                       # What write queue length does an incoming req see
system.mem_ctrls.wrQLenPdf::13                      0                       # What write queue length does an incoming req see
system.mem_ctrls.wrQLenPdf::14                      0                       # What write queue length does an incoming req see
system.mem_ctrls.wrQLenPdf::15                      0                       # What write queue length does an incoming req see
system.mem_ctrls.wrQLenPdf::16                      0                       # What write queue length does an incoming req see
system.mem_ctrls.wrQLenPdf::17                      0                       # What write queue length does an incoming req see
system.mem_ctrls.wrQLenPdf::18                      0                       # What write queue length does an incoming req see
system.mem_ctrls.wrQLenPdf::19                      0                       # What write queue length does an incoming req see
system.mem_ctrls.wrQLenPdf::20                      0                       # What write queue length does an incoming req see
system.mem_ctrls.wrQLenPdf::21                      0                       # What write queue length does an incoming req see
system.mem_ctrls.wrQLenPdf::22                      0                       # What write queue length does an incoming req see
system.mem_ctrls.wrQLenPdf::23                      0                       # What write queue length does an incoming req see
system.mem_ctrls.wrQLenPdf::24                      0                       # What write queue length does an incoming req see
system.mem_ctrls.wrQLenPdf::25                      0                       # What write queue length does an incoming req see
system.mem_ctrls.wrQLenPdf::26                      0                       # What write queue length does an incoming req see
system.mem_ctrls.wrQLenPdf::27                      0                       # What write queue length does an incoming req see
system.mem_ctrls.wrQLenPdf::28                      0                       # What write queue length does an incoming req see
system.mem_ctrls.wrQLenPdf::29                      0                       # What write queue length does an incoming req see
system.mem_ctrls.wrQLenPdf::30                      0                       # What write queue length does an incoming req see
system.mem_ctrls.wrQLenPdf::31                      0                       # What write queue length does an incoming req see
system.mem_ctrls.wrQLenPdf::32                      0                       # What write queue length does an incoming req see
system.mem_ctrls.wrQLenPdf::33                      0                       # What write queue length does an incoming req see
system.mem_ctrls.wrQLenPdf::34                      0                       # What write queue length does an incoming req see
system.mem_ctrls.wrQLenPdf::35                      0                       # What write queue length does an incoming req see
system.mem_ctrls.wrQLenPdf::36                      0                       # What write queue length does an incoming req see
system.mem_ctrls.wrQLenPdf::37                      0                       # What write queue length does an incoming req see
system.mem_ctrls.wrQLenPdf::38                      0                       # What write queue length does an incoming req see
system.mem_ctrls.wrQLenPdf::39                      0                       # What write queue length does an incoming req see
system.mem_ctrls.wrQLenPdf::40                      0                       # What write queue length does an incoming req see
system.mem_ctrls.wrQLenPdf::41                      0                       # What write queue length does an incoming req see
system.mem_ctrls.wrQLenPdf::42                      0                       # What write queue length does an incoming req see
system.mem_ctrls.wrQLenPdf::43                      0                       # What write queue length does an incoming req see
system.mem_ctrls.wrQLenPdf::44                      0                       # What write queue length does an incoming req see
system.mem_ctrls.wrQLenPdf::45                      0                       # What write queue length does an incoming req see
system.mem_ctrls.wrQLenPdf::46                      0                       # What write queue length does an incoming req see
system.mem_ctrls.wrQLenPdf::47                      0                       # What write queue length does an incoming req see
system.mem_ctrls.wrQLenPdf::48                      0                       # What write queue length does an incoming req see
system.mem_ctrls.wrQLenPdf::49                      0                       # What write queue length does an incoming req see
system.mem_ctrls.wrQLenPdf::50                      0                       # What write queue length does an incoming req see
system.mem_ctrls.wrQLenPdf::51                      0                       # What write queue length does an incoming req see
system.mem_ctrls.wrQLenPdf::52                      0                       # What write queue length does an incoming req see
system.mem_ctrls.wrQLenPdf::53                      0                       # What write queue length does an incoming req see
system.mem_ctrls.wrQLenPdf::54                      0                       # What write queue length does an incoming req see
system.mem_ctrls.wrQLenPdf::55                      0                       # What write queue length does an incoming req see
system.mem_ctrls.wrQLenPdf::56                      0                       # What write queue length does an incoming req see
system.mem_ctrls.wrQLenPdf::57                      0                       # What write queue length does an incoming req see
system.mem_ctrls.wrQLenPdf::58                      0                       # What write queue length does an incoming req see
system.mem_ctrls.wrQLenPdf::59                      0                       # What write queue length does an incoming req see
system.mem_ctrls.wrQLenPdf::60                      0                       # What write queue length does an incoming req see
system.mem_ctrls.wrQLenPdf::61                      0                       # What write queue length does an incoming req see
system.mem_ctrls.wrQLenPdf::62                      0                       # What write queue length does an incoming req see
system.mem_ctrls.wrQLenPdf::63                      0                       # What write queue length does an incoming req see
system.mem_ctrls.bytesPerActivate::samples          286                       # Bytes accessed per row activation
system.mem_ctrls.bytesPerActivate::mean    309.706294                       # Bytes accessed per row activation
system.mem_ctrls.bytesPerActivate::gmean   174.163254                       # Bytes accessed per row activation
system.mem_ctrls.bytesPerActivate::stdev   337.989262                       # Bytes accessed per row activation
system.mem_ctrls.bytesPerActivate::0-127          125     43.71%     43.71% # Bytes accessed per row activation
system.mem_ctrls.bytesPerActivate::128-255           52     18.18%     61.89% # Bytes accessed per row activation
system.mem_ctrls.bytesPerActivate::256-383           24      8.39%     70.28% # Bytes accessed per row activation
system.mem_ctrls.bytesPerActivate::384-511           14      4.90%     75.17% # Bytes accessed per row activation
system.mem_ctrls.bytesPerActivate::512-639           15      5.24%     80.42% # Bytes accessed per row activation
system.mem_ctrls.bytesPerActivate::640-767           10      3.50%     83.92% # Bytes accessed per row activation
system.mem_ctrls.bytesPerActivate::768-895            6      2.10%     86.01% # Bytes accessed per row activation
system.mem_ctrls.bytesPerActivate::896-1023            5      1.75%     87.76% # Bytes accessed per row activation
system.mem_ctrls.bytesPerActivate::1024-1151           35     12.24%    100.00% # Bytes accessed per row activation
system.mem_ctrls.bytesPerActivate::total          286                       # Bytes accessed per row activation
system.mem_ctrls.totQLat                     32964750                       # Total ticks spent queuing
system.mem_ctrls.totMemAccLat                59664750                       # Total ticks spent from burst creation until serviced by the DRAM
system.mem_ctrls.totBusLat                    7120000                       # Total ticks spent in databus transfers
system.mem_ctrls.avgQLat                     23149.40                       # Average queueing delay per DRAM burst
system.mem_ctrls.avgBusLat                    5000.00                       # Average bus latency per DRAM burst
system.mem_ctrls.avgMemAccLat                41899.40                       # Average memory access latency per DRAM burst
system.mem_ctrls.avgRdBW                      2403.72                       # Average DRAM read bandwidth in MiByte/s
system.mem_ctrls.avgWrBW                         0.00                       # Average achieved write bandwidth in MiByte/s
system.mem_ctrls.avgRdBWSys                   2432.42                       # Average system read bandwidth in MiByte/s
system.mem_ctrls.avgWrBWSys                     16.88                       # Average system write bandwidth in MiByte/s
system.mem_ctrls.peakBW                      12800.00                       # Theoretical peak bandwidth in MiByte/s
system.mem_ctrls.busUtil                        18.78                       # Data bus utilization in percentage
system.mem_ctrls.busUtilRead                    18.78                       # Data bus utilization in percentage for reads
system.mem_ctrls.busUtilWrite                    0.00                       # Data bus utilization in percentage for writes
system.mem_ctrls.avgRdQLen                       2.62                       # Average read queue length when enqueuing
system.mem_ctrls.avgWrQLen                       2.01                       # Average write queue length when enqueuing
system.mem_ctrls.readRowHits                     1126                       # Number of row buffer hits during reads
system.mem_ctrls.writeRowHits                       0                       # Number of row buffer hits during writes
system.mem_ctrls.readRowHitRate                 79.07                       # Row buffer hit rate for reads
system.mem_ctrls.writeRowHitRate                 0.00                       # Row buffer hit rate for writes
system.mem_ctrls.avgGap                      26124.74                       # Average gap between requests
system.mem_ctrls.pageHitRate                    78.58                       # Row buffer hit rate, read and write combined
system.mem_ctrls_0.actEnergy                  1315440                       # Energy for activate commands per rank (pJ)
system.mem_ctrls_0.preEnergy                   717750                       # Energy for precharge commands per rank (pJ)
system.mem_ctrls_0.readEnergy                 5826600                       # Energy for read commands per rank (pJ)
system.mem_ctrls_0.writeEnergy                      0                       # Energy for write commands per rank (pJ)
system.mem_ctrls_0.refreshEnergy              2034240                       # Energy for refresh commands per rank (pJ)
system.mem_ctrls_0.actBackEnergy             21338235                       # Energy for active background per rank (pJ)
system.mem_ctrls_0.preBackEnergy               145500                       # Energy for precharge background per rank (pJ)
system.mem_ctrls_0.totalEnergy               31377765                       # Total energy per rank (pJ)
system.mem_ctrls_0.averagePower            998.060196                       # Core power per rank (mW)
system.mem_ctrls_0.memoryStateTime::IDLE       146000                       # Time in different power states
system.mem_ctrls_0.memoryStateTime::REF       1040000                       # Time in different power states
system.mem_ctrls_0.memoryStateTime::PRE_PDN            0                       # Time in different power states
system.mem_ctrls_0.memoryStateTime::ACT      30265750                       # Time in different power states
system.mem_ctrls_0.memoryStateTime::ACT_PDN            0                       # Time in different power states
system.mem_ctrls_1.actEnergy                   189000                       # Energy for activate commands per rank (pJ)
system.mem_ctrls_1.preEnergy                   103125                       # Energy for precharge commands per rank (pJ)
system.mem_ctrls_1.readEnergy                 1084200                       # Energy for read commands per rank (pJ)
system.mem_ctrls_1.writeEnergy                      0                       # Energy for write commands per rank (pJ)
system.mem_ctrls_1.refreshEnergy              2034240                       # Energy for refresh commands per rank (pJ)
system.mem_ctrls_1.actBackEnergy             21083445                       # Energy for active background per rank (pJ)
system.mem_ctrls_1.preBackEnergy               348750                       # Energy for precharge background per rank (pJ)
system.mem_ctrls_1.totalEnergy               24842760                       # Total energy per rank (pJ)
system.mem_ctrls_1.averagePower            791.044738                       # Core power per rank (mW)
system.mem_ctrls_1.memoryStateTime::IDLE      1064000                       # Time in different power states
system.mem_ctrls_1.memoryStateTime::REF       1040000                       # Time in different power states
system.mem_ctrls_1.memoryStateTime::PRE_PDN            0                       # Time in different power states
system.mem_ctrls_1.memoryStateTime::ACT      29894000                       # Time in different power states
system.mem_ctrls_1.memoryStateTime::ACT_PDN            0                       # Time in different power states
system.cpu0.branchPred.lookups                   9362                       # Number of BP lookups
system.cpu0.branchPred.condPredicted             7133                       # Number of conditional branches predicted
system.cpu0.branchPred.condIncorrect              932                       # Number of conditional branches incorrect
system.cpu0.branchPred.BTBLookups                6501                       # Number of BTB lookups
system.cpu0.branchPred.BTBHits                   3348                       # Number of BTB hits
system.cpu0.branchPred.BTBCorrect                   0                       # Number of correct BTB predictions (this stat may not work properly.
system.cpu0.branchPred.BTBHitPct            51.499769                       # BTB Hit Percentage
system.cpu0.branchPred.usedRAS                    863                       # Number of times the RAS was used to get a target.
system.cpu0.branchPred.RASInCorrect                10                       # Number of incorrect RAS predictions.
system.cpu_voltage_domain.voltage                   1                       # Voltage in Volts
system.cpu_clk_domain.clock                       500                       # Clock period in ticks
system.cpu0.dstage2_mmu.stage2_tlb.walker.walks            0                       # Table walker walks requested
system.cpu0.dstage2_mmu.stage2_tlb.walker.walkRequestOrigin_Requested::Data            0                       # Table walker requests started/completed, data/inst
system.cpu0.dstage2_mmu.stage2_tlb.walker.walkRequestOrigin_Requested::Inst            0                       # Table walker requests started/completed, data/inst
system.cpu0.dstage2_mmu.stage2_tlb.walker.walkRequestOrigin_Requested::total            0                       # Table walker requests started/completed, data/inst
system.cpu0.dstage2_mmu.stage2_tlb.walker.walkRequestOrigin_Completed::Data            0                       # Table walker requests started/completed, data/inst
system.cpu0.dstage2_mmu.stage2_tlb.walker.walkRequestOrigin_Completed::Inst            0                       # Table walker requests started/completed, data/inst
system.cpu0.dstage2_mmu.stage2_tlb.walker.walkRequestOrigin_Completed::total            0                       # Table walker requests started/completed, data/inst
system.cpu0.dstage2_mmu.stage2_tlb.walker.walkRequestOrigin::total            0                       # Table walker requests started/completed, data/inst
system.cpu0.dstage2_mmu.stage2_tlb.inst_hits            0                       # ITB inst hits
system.cpu0.dstage2_mmu.stage2_tlb.inst_misses            0                       # ITB inst misses
system.cpu0.dstage2_mmu.stage2_tlb.read_hits            0                       # DTB read hits
system.cpu0.dstage2_mmu.stage2_tlb.read_misses            0                       # DTB read misses
system.cpu0.dstage2_mmu.stage2_tlb.write_hits            0                       # DTB write hits
system.cpu0.dstage2_mmu.stage2_tlb.write_misses            0                       # DTB write misses
system.cpu0.dstage2_mmu.stage2_tlb.flush_tlb            0                       # Number of times complete TLB was flushed
system.cpu0.dstage2_mmu.stage2_tlb.flush_tlb_mva            0                       # Number of times TLB was flushed by MVA
system.cpu0.dstage2_mmu.stage2_tlb.flush_tlb_mva_asid            0                       # Number of times TLB was flushed by MVA & ASID
system.cpu0.dstage2_mmu.stage2_tlb.flush_tlb_asid            0                       # Number of times TLB was flushed by ASID
system.cpu0.dstage2_mmu.stage2_tlb.flush_entries            0                       # Number of entries that have been flushed from TLB
system.cpu0.dstage2_mmu.stage2_tlb.align_faults            0                       # Number of TLB faults due to alignment restrictions
system.cpu0.dstage2_mmu.stage2_tlb.prefetch_faults            0                       # Number of TLB faults due to prefetch
system.cpu0.dstage2_mmu.stage2_tlb.domain_faults            0                       # Number of TLB faults due to domain restrictions
system.cpu0.dstage2_mmu.stage2_tlb.perms_faults            0                       # Number of TLB faults due to permissions restrictions
system.cpu0.dstage2_mmu.stage2_tlb.read_accesses            0                       # DTB read accesses
system.cpu0.dstage2_mmu.stage2_tlb.write_accesses            0                       # DTB write accesses
system.cpu0.dstage2_mmu.stage2_tlb.inst_accesses            0                       # ITB inst accesses
system.cpu0.dstage2_mmu.stage2_tlb.hits             0                       # DTB hits
system.cpu0.dstage2_mmu.stage2_tlb.misses            0                       # DTB misses
system.cpu0.dstage2_mmu.stage2_tlb.accesses            0                       # DTB accesses
system.cpu0.dtb.walker.walks                        0                       # Table walker walks requested
system.cpu0.dtb.walker.walkRequestOrigin_Requested::Data            0                       # Table walker requests started/completed, data/inst
system.cpu0.dtb.walker.walkRequestOrigin_Requested::Inst            0                       # Table walker requests started/completed, data/inst
system.cpu0.dtb.walker.walkRequestOrigin_Requested::total            0                       # Table walker requests started/completed, data/inst
system.cpu0.dtb.walker.walkRequestOrigin_Completed::Data            0                       # Table walker requests started/completed, data/inst
system.cpu0.dtb.walker.walkRequestOrigin_Completed::Inst            0                       # Table walker requests started/completed, data/inst
system.cpu0.dtb.walker.walkRequestOrigin_Completed::total            0                       # Table walker requests started/completed, data/inst
system.cpu0.dtb.walker.walkRequestOrigin::total            0                       # Table walker requests started/completed, data/inst
system.cpu0.dtb.inst_hits                           0                       # ITB inst hits
system.cpu0.dtb.inst_misses                         0                       # ITB inst misses
system.cpu0.dtb.read_hits                           0                       # DTB read hits
system.cpu0.dtb.read_misses                         0                       # DTB read misses
system.cpu0.dtb.write_hits                          0                       # DTB write hits
system.cpu0.dtb.write_misses                        0                       # DTB write misses
system.cpu0.dtb.flush_tlb                           0                       # Number of times complete TLB was flushed
system.cpu0.dtb.flush_tlb_mva                       0                       # Number of times TLB was flushed by MVA
system.cpu0.dtb.flush_tlb_mva_asid                  0                       # Number of times TLB was flushed by MVA & ASID
system.cpu0.dtb.flush_tlb_asid                      0                       # Number of times TLB was flushed by ASID
system.cpu0.dtb.flush_entries                       0                       # Number of entries that have been flushed from TLB
system.cpu0.dtb.align_faults                        0                       # Number of TLB faults due to alignment restrictions
system.cpu0.dtb.prefetch_faults                     0                       # Number of TLB faults due to prefetch
system.cpu0.dtb.domain_faults                       0                       # Number of TLB faults due to domain restrictions
system.cpu0.dtb.perms_faults                        0                       # Number of TLB faults due to permissions restrictions
system.cpu0.dtb.read_accesses                       0                       # DTB read accesses
system.cpu0.dtb.write_accesses                      0                       # DTB write accesses
system.cpu0.dtb.inst_accesses                       0                       # ITB inst accesses
system.cpu0.dtb.hits                                0                       # DTB hits
system.cpu0.dtb.misses                              0                       # DTB misses
system.cpu0.dtb.accesses                            0                       # DTB accesses
system.cpu0.istage2_mmu.stage2_tlb.walker.walks            0                       # Table walker walks requested
system.cpu0.istage2_mmu.stage2_tlb.walker.walkRequestOrigin_Requested::Data            0                       # Table walker requests started/completed, data/inst
system.cpu0.istage2_mmu.stage2_tlb.walker.walkRequestOrigin_Requested::Inst            0                       # Table walker requests started/completed, data/inst
system.cpu0.istage2_mmu.stage2_tlb.walker.walkRequestOrigin_Requested::total            0                       # Table walker requests started/completed, data/inst
system.cpu0.istage2_mmu.stage2_tlb.walker.walkRequestOrigin_Completed::Data            0                       # Table walker requests started/completed, data/inst
system.cpu0.istage2_mmu.stage2_tlb.walker.walkRequestOrigin_Completed::Inst            0                       # Table walker requests started/completed, data/inst
system.cpu0.istage2_mmu.stage2_tlb.walker.walkRequestOrigin_Completed::total            0                       # Table walker requests started/completed, data/inst
system.cpu0.istage2_mmu.stage2_tlb.walker.walkRequestOrigin::total            0                       # Table walker requests started/completed, data/inst
system.cpu0.istage2_mmu.stage2_tlb.inst_hits            0                       # ITB inst hits
system.cpu0.istage2_mmu.stage2_tlb.inst_misses            0                       # ITB inst misses
system.cpu0.istage2_mmu.stage2_tlb.read_hits            0                       # DTB read hits
system.cpu0.istage2_mmu.stage2_tlb.read_misses            0                       # DTB read misses
system.cpu0.istage2_mmu.stage2_tlb.write_hits            0                       # DTB write hits
system.cpu0.istage2_mmu.stage2_tlb.write_misses            0                       # DTB write misses
system.cpu0.istage2_mmu.stage2_tlb.flush_tlb            0                       # Number of times complete TLB was flushed
system.cpu0.istage2_mmu.stage2_tlb.flush_tlb_mva            0                       # Number of times TLB was flushed by MVA
system.cpu0.istage2_mmu.stage2_tlb.flush_tlb_mva_asid            0                       # Number of times TLB was flushed by MVA & ASID
system.cpu0.istage2_mmu.stage2_tlb.flush_tlb_asid            0                       # Number of times TLB was flushed by ASID
system.cpu0.istage2_mmu.stage2_tlb.flush_entries            0                       # Number of entries that have been flushed from TLB
system.cpu0.istage2_mmu.stage2_tlb.align_faults            0                       # Number of TLB faults due to alignment restrictions
system.cpu0.istage2_mmu.stage2_tlb.prefetch_faults            0                       # Number of TLB faults due to prefetch
system.cpu0.istage2_mmu.stage2_tlb.domain_faults            0                       # Number of TLB faults due to domain restrictions
system.cpu0.istage2_mmu.stage2_tlb.perms_faults            0                       # Number of TLB faults due to permissions restrictions
system.cpu0.istage2_mmu.stage2_tlb.read_accesses            0                       # DTB read accesses
system.cpu0.istage2_mmu.stage2_tlb.write_accesses            0                       # DTB write accesses
system.cpu0.istage2_mmu.stage2_tlb.inst_accesses            0                       # ITB inst accesses
system.cpu0.istage2_mmu.stage2_tlb.hits             0                       # DTB hits
system.cpu0.istage2_mmu.stage2_tlb.misses            0                       # DTB misses
system.cpu0.istage2_mmu.stage2_tlb.accesses            0                       # DTB accesses
system.cpu0.itb.walker.walks                        0                       # Table walker walks requested
system.cpu0.itb.walker.walkRequestOrigin_Requested::Data            0                       # Table walker requests started/completed, data/inst
system.cpu0.itb.walker.walkRequestOrigin_Requested::Inst            0                       # Table walker requests started/completed, data/inst
system.cpu0.itb.walker.walkRequestOrigin_Requested::total            0                       # Table walker requests started/completed, data/inst
system.cpu0.itb.walker.walkRequestOrigin_Completed::Data            0                       # Table walker requests started/completed, data/inst
system.cpu0.itb.walker.walkRequestOrigin_Completed::Inst            0                       # Table walker requests started/completed, data/inst
system.cpu0.itb.walker.walkRequestOrigin_Completed::total            0                       # Table walker requests started/completed, data/inst
system.cpu0.itb.walker.walkRequestOrigin::total            0                       # Table walker requests started/completed, data/inst
system.cpu0.itb.inst_hits                           0                       # ITB inst hits
system.cpu0.itb.inst_misses                         0                       # ITB inst misses
system.cpu0.itb.read_hits                           0                       # DTB read hits
system.cpu0.itb.read_misses                         0                       # DTB read misses
system.cpu0.itb.write_hits                          0                       # DTB write hits
system.cpu0.itb.write_misses                        0                       # DTB write misses
system.cpu0.itb.flush_tlb                           0                       # Number of times complete TLB was flushed
system.cpu0.itb.flush_tlb_mva                       0                       # Number of times TLB was flushed by MVA
system.cpu0.itb.flush_tlb_mva_asid                  0                       # Number of times TLB was flushed by MVA & ASID
system.cpu0.itb.flush_tlb_asid                      0                       # Number of times TLB was flushed by ASID
system.cpu0.itb.flush_entries                       0                       # Number of entries that have been flushed from TLB
system.cpu0.itb.align_faults                        0                       # Number of TLB faults due to alignment restrictions
system.cpu0.itb.prefetch_faults                     0                       # Number of TLB faults due to prefetch
system.cpu0.itb.domain_faults                       0                       # Number of TLB faults due to domain restrictions
system.cpu0.itb.perms_faults                        0                       # Number of TLB faults due to permissions restrictions
system.cpu0.itb.read_accesses                       0                       # DTB read accesses
system.cpu0.itb.write_accesses                      0                       # DTB write accesses
system.cpu0.itb.inst_accesses                       0                       # ITB inst accesses
system.cpu0.itb.hits                                0                       # DTB hits
system.cpu0.itb.misses                              0                       # DTB misses
system.cpu0.itb.accesses                            0                       # DTB accesses
system.cpu0.workload.num_syscalls                 202                       # Number of system calls
system.cpu0.numCycles                           75830                       # number of cpu cycles simulated
system.cpu0.numWorkItemsStarted                     0                       # number of work items this cpu started
system.cpu0.numWorkItemsCompleted                   0                       # number of work items this cpu completed
system.cpu0.fetch.icacheStallCycles             18146                       # Number of cycles fetch is stalled on an Icache miss
system.cpu0.fetch.Insts                         46350                       # Number of instructions fetch has processed
system.cpu0.fetch.Branches                       9362                       # Number of branches that fetch encountered
system.cpu0.fetch.predictedBranches              4211                       # Number of branches that fetch has predicted taken
system.cpu0.fetch.Cycles                        22429                       # Number of cycles fetch has run and was not squashing or blocked
system.cpu0.fetch.SquashCycles                   2005                       # Number of cycles fetch has spent squashing
system.cpu0.fetch.MiscStallCycles                   1                       # Number of cycles fetch has spent waiting on interrupts, or bad addresses, or out of MSHRs
system.cpu0.fetch.PendingTrapStallCycles            1                       # Number of stall cycles due to pending traps
system.cpu0.fetch.CacheLines                     5329                       # Number of cache lines fetched
system.cpu0.fetch.IcacheSquashes                  613                       # Number of outstanding Icache misses that were squashed
system.cpu0.fetch.rateDist::samples             41579                       # Number of instructions fetched each cycle (Total)
system.cpu0.fetch.rateDist::mean             1.303759                       # Number of instructions fetched each cycle (Total)
system.cpu0.fetch.rateDist::stdev            2.718314                       # Number of instructions fetched each cycle (Total)
system.cpu0.fetch.rateDist::underflows              0      0.00%      0.00% # Number of instructions fetched each cycle (Total)
system.cpu0.fetch.rateDist::0                   32399     77.92%     77.92% # Number of instructions fetched each cycle (Total)
system.cpu0.fetch.rateDist::1                     698      1.68%     79.60% # Number of instructions fetched each cycle (Total)
system.cpu0.fetch.rateDist::2                     845      2.03%     81.63% # Number of instructions fetched each cycle (Total)
system.cpu0.fetch.rateDist::3                     653      1.57%     83.20% # Number of instructions fetched each cycle (Total)
system.cpu0.fetch.rateDist::4                     560      1.35%     84.55% # Number of instructions fetched each cycle (Total)
system.cpu0.fetch.rateDist::5                     524      1.26%     85.81% # Number of instructions fetched each cycle (Total)
system.cpu0.fetch.rateDist::6                     630      1.52%     87.33% # Number of instructions fetched each cycle (Total)
system.cpu0.fetch.rateDist::7                     938      2.26%     89.58% # Number of instructions fetched each cycle (Total)
system.cpu0.fetch.rateDist::8                    4332     10.42%    100.00% # Number of instructions fetched each cycle (Total)
system.cpu0.fetch.rateDist::overflows               0      0.00%    100.00% # Number of instructions fetched each cycle (Total)
system.cpu0.fetch.rateDist::min_value               0                       # Number of instructions fetched each cycle (Total)
system.cpu0.fetch.rateDist::max_value               8                       # Number of instructions fetched each cycle (Total)
system.cpu0.fetch.rateDist::total               41579                       # Number of instructions fetched each cycle (Total)
system.cpu0.fetch.branchRate                 0.123460                       # Number of branch fetches per cycle
system.cpu0.fetch.rate                       0.611236                       # Number of inst fetches per cycle
system.cpu0.decode.IdleCycles                   14579                       # Number of cycles decode is idle
system.cpu0.decode.BlockedCycles                18535                       # Number of cycles decode is blocked
system.cpu0.decode.RunCycles                     6595                       # Number of cycles decode is running
system.cpu0.decode.UnblockCycles                 1171                       # Number of cycles decode is unblocking
system.cpu0.decode.SquashCycles                   699                       # Number of cycles decode is squashing
system.cpu0.decode.BranchResolved                 923                       # Number of times decode resolved a branch
system.cpu0.decode.BranchMispred                  313                       # Number of times decode detected a branch misprediction
system.cpu0.decode.DecodedInsts                 47069                       # Number of instructions handled by decode
system.cpu0.decode.SquashedInsts                 1153                       # Number of squashed instructions handled by decode
system.cpu0.rename.SquashCycles                   699                       # Number of cycles rename is squashing
system.cpu0.rename.IdleCycles                   15309                       # Number of cycles rename is idle
system.cpu0.rename.BlockCycles                   2342                       # Number of cycles rename is blocking
system.cpu0.rename.serializeStallCycles         10136                       # count of cycles rename stalled for serializing inst
system.cpu0.rename.RunCycles                     6994                       # Number of cycles rename is running
system.cpu0.rename.UnblockCycles                 6099                       # Number of cycles rename is unblocking
system.cpu0.rename.RenamedInsts                 45317                       # Number of instructions processed by rename
system.cpu0.rename.ROBFullEvents                    2                       # Number of times rename has blocked due to ROB full
system.cpu0.rename.IQFullEvents                   599                       # Number of times rename has blocked due to IQ full
system.cpu0.rename.LQFullEvents                   203                       # Number of times rename has blocked due to LQ full
system.cpu0.rename.SQFullEvents                  4998                       # Number of times rename has blocked due to SQ full
system.cpu0.rename.RenamedOperands              53905                       # Number of destination operands rename has renamed
system.cpu0.rename.RenameLookups               213006                       # Number of register rename lookups that rename has made
system.cpu0.rename.int_rename_lookups           55622                       # Number of integer rename lookups
system.cpu0.rename.fp_rename_lookups               22                       # Number of floating rename lookups
system.cpu0.rename.CommittedMaps                36077                       # Number of HB maps that are committed
system.cpu0.rename.UndoneMaps                   17828                       # Number of HB maps that are undone due to squashing
system.cpu0.rename.serializingInsts               144                       # count of serializing insts renamed
system.cpu0.rename.tempSerializingInsts           142                       # count of temporary serializing insts renamed
system.cpu0.rename.skidInsts                     4455                       # count of insts added to the skid buffer
system.cpu0.memDep0.insertedLoads                7000                       # Number of loads inserted to the mem dependence unit.
system.cpu0.memDep0.insertedStores               6183                       # Number of stores inserted to the mem dependence unit.
system.cpu0.memDep0.conflictingLoads              594                       # Number of conflicting loads.
system.cpu0.memDep0.conflictingStores             570                       # Number of conflicting stores.
system.cpu0.iq.iqInstsAdded                     42450                       # Number of instructions added to the IQ (excludes non-spec)
system.cpu0.iq.iqNonSpecInstsAdded                287                       # Number of non-speculative instructions added to the IQ
system.cpu0.iq.iqInstsIssued                    35991                       # Number of instructions issued
system.cpu0.iq.iqSquashedInstsIssued              521                       # Number of squashed instructions issued
system.cpu0.iq.iqSquashedInstsExamined          13048                       # Number of squashed instructions iterated over during squash; mainly for profiling
system.cpu0.iq.iqSquashedOperandsExamined        37439                       # Number of squashed operands that are examined and possibly removed from graph
system.cpu0.iq.iqSquashedNonSpecRemoved            77                       # Number of squashed non-spec instructions that were removed
system.cpu0.iq.issued_per_cycle::samples        41579                       # Number of insts issued each cycle
system.cpu0.iq.issued_per_cycle::mean        0.865605                       # Number of insts issued each cycle
system.cpu0.iq.issued_per_cycle::stdev       1.479809                       # Number of insts issued each cycle
system.cpu0.iq.issued_per_cycle::underflows            0      0.00%      0.00% # Number of insts issued each cycle
system.cpu0.iq.issued_per_cycle::0              28904     69.52%     69.52% # Number of insts issued each cycle
system.cpu0.iq.issued_per_cycle::1               3112      7.48%     77.00% # Number of insts issued each cycle
system.cpu0.iq.issued_per_cycle::2               1847      4.44%     81.44% # Number of insts issued each cycle
system.cpu0.iq.issued_per_cycle::3               1679      4.04%     85.48% # Number of insts issued each cycle
system.cpu0.iq.issued_per_cycle::4               6037     14.52%    100.00% # Number of insts issued each cycle
system.cpu0.iq.issued_per_cycle::overflows            0      0.00%    100.00% # Number of insts issued each cycle
system.cpu0.iq.issued_per_cycle::min_value            0                       # Number of insts issued each cycle
system.cpu0.iq.issued_per_cycle::max_value            4                       # Number of insts issued each cycle
system.cpu0.iq.issued_per_cycle::total          41579                       # Number of insts issued each cycle
system.cpu0.iq.fu_full::No_OpClass                  0      0.00%      0.00% # attempts to use FU when none available
system.cpu0.iq.fu_full::IntAlu                      0      0.00%      0.00% # attempts to use FU when none available
system.cpu0.iq.fu_full::IntMult                     3    100.00%    100.00% # attempts to use FU when none available
system.cpu0.iq.fu_full::IntDiv                      0      0.00%    100.00% # attempts to use FU when none available
system.cpu0.iq.fu_full::FloatAdd                    0      0.00%    100.00% # attempts to use FU when none available
system.cpu0.iq.fu_full::FloatCmp                    0      0.00%    100.00% # attempts to use FU when none available
system.cpu0.iq.fu_full::FloatCvt                    0      0.00%    100.00% # attempts to use FU when none available
system.cpu0.iq.fu_full::FloatMult                   0      0.00%    100.00% # attempts to use FU when none available
system.cpu0.iq.fu_full::FloatDiv                    0      0.00%    100.00% # attempts to use FU when none available
system.cpu0.iq.fu_full::FloatSqrt                   0      0.00%    100.00% # attempts to use FU when none available
system.cpu0.iq.fu_full::SimdAdd                     0      0.00%    100.00% # attempts to use FU when none available
system.cpu0.iq.fu_full::SimdAddAcc                  0      0.00%    100.00% # attempts to use FU when none available
system.cpu0.iq.fu_full::SimdAlu                     0      0.00%    100.00% # attempts to use FU when none available
system.cpu0.iq.fu_full::SimdCmp                     0      0.00%    100.00% # attempts to use FU when none available
system.cpu0.iq.fu_full::SimdCvt                     0      0.00%    100.00% # attempts to use FU when none available
system.cpu0.iq.fu_full::SimdMisc                    0      0.00%    100.00% # attempts to use FU when none available
system.cpu0.iq.fu_full::SimdMult                    0      0.00%    100.00% # attempts to use FU when none available
system.cpu0.iq.fu_full::SimdMultAcc                 0      0.00%    100.00% # attempts to use FU when none available
system.cpu0.iq.fu_full::SimdShift                   0      0.00%    100.00% # attempts to use FU when none available
system.cpu0.iq.fu_full::SimdShiftAcc                0      0.00%    100.00% # attempts to use FU when none available
system.cpu0.iq.fu_full::SimdSqrt                    0      0.00%    100.00% # attempts to use FU when none available
system.cpu0.iq.fu_full::SimdFloatAdd                0      0.00%    100.00% # attempts to use FU when none available
system.cpu0.iq.fu_full::SimdFloatAlu                0      0.00%    100.00% # attempts to use FU when none available
system.cpu0.iq.fu_full::SimdFloatCmp                0      0.00%    100.00% # attempts to use FU when none available
system.cpu0.iq.fu_full::SimdFloatCvt                0      0.00%    100.00% # attempts to use FU when none available
system.cpu0.iq.fu_full::SimdFloatDiv                0      0.00%    100.00% # attempts to use FU when none available
system.cpu0.iq.fu_full::SimdFloatMisc               0      0.00%    100.00% # attempts to use FU when none available
system.cpu0.iq.fu_full::SimdFloatMult               0      0.00%    100.00% # attempts to use FU when none available
system.cpu0.iq.fu_full::SimdFloatMultAcc            0      0.00%    100.00% # attempts to use FU when none available
system.cpu0.iq.fu_full::SimdFloatSqrt               0      0.00%    100.00% # attempts to use FU when none available
system.cpu0.iq.fu_full::MemRead                     0      0.00%    100.00% # attempts to use FU when none available
system.cpu0.iq.fu_full::MemWrite                    0      0.00%    100.00% # attempts to use FU when none available
system.cpu0.iq.fu_full::IprAccess                   0      0.00%    100.00% # attempts to use FU when none available
system.cpu0.iq.fu_full::InstPrefetch                0      0.00%    100.00% # attempts to use FU when none available
system.cpu0.iq.FU_type_0::No_OpClass                0      0.00%      0.00% # Type of FU issued
system.cpu0.iq.FU_type_0::IntAlu                24057     66.84%     66.84% # Type of FU issued
system.cpu0.iq.FU_type_0::IntMult                 361      1.00%     67.84% # Type of FU issued
system.cpu0.iq.FU_type_0::IntDiv                    0      0.00%     67.84% # Type of FU issued
system.cpu0.iq.FU_type_0::FloatAdd                  0      0.00%     67.84% # Type of FU issued
system.cpu0.iq.FU_type_0::FloatCmp                  0      0.00%     67.84% # Type of FU issued
system.cpu0.iq.FU_type_0::FloatCvt                  0      0.00%     67.84% # Type of FU issued
system.cpu0.iq.FU_type_0::FloatMult                 0      0.00%     67.84% # Type of FU issued
system.cpu0.iq.FU_type_0::FloatDiv                  0      0.00%     67.84% # Type of FU issued
system.cpu0.iq.FU_type_0::FloatSqrt                 0      0.00%     67.84% # Type of FU issued
system.cpu0.iq.FU_type_0::SimdAdd                   0      0.00%     67.84% # Type of FU issued
system.cpu0.iq.FU_type_0::SimdAddAcc                0      0.00%     67.84% # Type of FU issued
system.cpu0.iq.FU_type_0::SimdAlu                   0      0.00%     67.84% # Type of FU issued
system.cpu0.iq.FU_type_0::SimdCmp                   0      0.00%     67.84% # Type of FU issued
system.cpu0.iq.FU_type_0::SimdCvt                   0      0.00%     67.84% # Type of FU issued
system.cpu0.iq.FU_type_0::SimdMisc                  0      0.00%     67.84% # Type of FU issued
system.cpu0.iq.FU_type_0::SimdMult                  0      0.00%     67.84% # Type of FU issued
system.cpu0.iq.FU_type_0::SimdMultAcc               0      0.00%     67.84% # Type of FU issued
system.cpu0.iq.FU_type_0::SimdShift                 0      0.00%     67.84% # Type of FU issued
system.cpu0.iq.FU_type_0::SimdShiftAcc              0      0.00%     67.84% # Type of FU issued
system.cpu0.iq.FU_type_0::SimdSqrt                  0      0.00%     67.84% # Type of FU issued
system.cpu0.iq.FU_type_0::SimdFloatAdd              0      0.00%     67.84% # Type of FU issued
system.cpu0.iq.FU_type_0::SimdFloatAlu              0      0.00%     67.84% # Type of FU issued
system.cpu0.iq.FU_type_0::SimdFloatCmp              0      0.00%     67.84% # Type of FU issued
system.cpu0.iq.FU_type_0::SimdFloatCvt              0      0.00%     67.84% # Type of FU issued
system.cpu0.iq.FU_type_0::SimdFloatDiv              0      0.00%     67.84% # Type of FU issued
system.cpu0.iq.FU_type_0::SimdFloatMisc             3      0.01%     67.85% # Type of FU issued
system.cpu0.iq.FU_type_0::SimdFloatMult             0      0.00%     67.85% # Type of FU issued
system.cpu0.iq.FU_type_0::SimdFloatMultAcc            0      0.00%     67.85% # Type of FU issued
system.cpu0.iq.FU_type_0::SimdFloatSqrt             0      0.00%     67.85% # Type of FU issued
system.cpu0.iq.FU_type_0::MemRead                6275     17.43%     85.29% # Type of FU issued
system.cpu0.iq.FU_type_0::MemWrite               5295     14.71%    100.00% # Type of FU issued
system.cpu0.iq.FU_type_0::IprAccess                 0      0.00%    100.00% # Type of FU issued
system.cpu0.iq.FU_type_0::InstPrefetch              0      0.00%    100.00% # Type of FU issued
system.cpu0.iq.FU_type_0::total                 35991                       # Type of FU issued
system.cpu0.iq.rate                          0.474627                       # Inst issue rate
system.cpu0.iq.fu_busy_cnt                          3                       # FU busy when requested
system.cpu0.iq.fu_busy_rate                  0.000083                       # FU busy rate (busy events/executed inst)
system.cpu0.iq.int_inst_queue_reads            114029                       # Number of integer instruction queue reads
system.cpu0.iq.int_inst_queue_writes            55811                       # Number of integer instruction queue writes
system.cpu0.iq.int_inst_queue_wakeup_accesses        34248                       # Number of integer instruction queue wakeup accesses
system.cpu0.iq.fp_inst_queue_reads                 56                       # Number of floating instruction queue reads
system.cpu0.iq.fp_inst_queue_writes                28                       # Number of floating instruction queue writes
system.cpu0.iq.fp_inst_queue_wakeup_accesses           28                       # Number of floating instruction queue wakeup accesses
system.cpu0.iq.int_alu_accesses                 35966                       # Number of integer alu accesses
system.cpu0.iq.fp_alu_accesses                     28                       # Number of floating point alu accesses
system.cpu0.iew.lsq.thread0.forwLoads             112                       # Number of loads that had data forwarded from stores
system.cpu0.iew.lsq.thread0.invAddrLoads            0                       # Number of loads ignored due to an invalid address
system.cpu0.iew.lsq.thread0.squashedLoads         2734                       # Number of loads squashed
system.cpu0.iew.lsq.thread0.ignoredResponses            3                       # Number of memory responses ignored because the instruction is squashed
system.cpu0.iew.lsq.thread0.memOrderViolation           56                       # Number of memory ordering violations
system.cpu0.iew.lsq.thread0.squashedStores         1425                       # Number of stores squashed
system.cpu0.iew.lsq.thread0.invAddrSwpfs            0                       # Number of software prefetches ignored due to an invalid address
system.cpu0.iew.lsq.thread0.blockedLoads            0                       # Number of blocked loads due to partial load-store forwarding
system.cpu0.iew.lsq.thread0.rescheduledLoads          105                       # Number of loads that were rescheduled
system.cpu0.iew.lsq.thread0.cacheBlocked           55                       # Number of times an access to memory failed due to the cache being blocked
system.cpu0.iew.iewIdleCycles                       0                       # Number of cycles IEW is idle
system.cpu0.iew.iewSquashCycles                   699                       # Number of cycles IEW is squashing
system.cpu0.iew.iewBlockCycles                   1824                       # Number of cycles IEW is blocking
system.cpu0.iew.iewUnblockCycles                  437                       # Number of cycles IEW is unblocking
system.cpu0.iew.iewDispatchedInsts              42745                       # Number of instructions dispatched to IQ
system.cpu0.iew.iewDispSquashedInsts              220                       # Number of squashed instructions skipped by dispatch
system.cpu0.iew.iewDispLoadInsts                 7000                       # Number of dispatched load instructions
system.cpu0.iew.iewDispStoreInsts                6183                       # Number of dispatched store instructions
system.cpu0.iew.iewDispNonSpecInsts               135                       # Number of dispatched non-speculative instructions
system.cpu0.iew.iewIQFullEvents                    16                       # Number of times the IQ has become full, causing a stall
system.cpu0.iew.iewLSQFullEvents                  411                       # Number of times the LSQ has become full, causing a stall
system.cpu0.iew.memOrderViolationEvents            56                       # Number of memory order violations
system.cpu0.iew.predictedTakenIncorrect           122                       # Number of branches that were predicted taken incorrectly
system.cpu0.iew.predictedNotTakenIncorrect          552                       # Number of branches that were predicted not taken incorrectly
system.cpu0.iew.branchMispredicts                 674                       # Number of branch mispredicts detected at execute
system.cpu0.iew.iewExecutedInsts                35167                       # Number of executed instructions
system.cpu0.iew.iewExecLoadInsts                 5933                       # Number of load instructions executed
system.cpu0.iew.iewExecSquashedInsts              824                       # Number of squashed instructions skipped in execute
system.cpu0.iew.exec_swp                            0                       # number of swp insts executed
system.cpu0.iew.exec_nop                            8                       # number of nop insts executed
system.cpu0.iew.exec_refs                       11050                       # number of memory reference insts executed
system.cpu0.iew.exec_branches                    5803                       # Number of branches executed
system.cpu0.iew.exec_stores                      5117                       # Number of stores executed
system.cpu0.iew.exec_rate                    0.463761                       # Inst execution rate
system.cpu0.iew.wb_sent                         34546                       # cumulative count of insts sent to commit
system.cpu0.iew.wb_count                        34276                       # cumulative count of insts written-back
system.cpu0.iew.wb_producers                    19217                       # num instructions producing a value
system.cpu0.iew.wb_consumers                    41344                       # num instructions consuming a value
system.cpu0.iew.wb_penalized                        0                       # number of instrctions required to write to 'other' IQ
system.cpu0.iew.wb_rate                      0.452011                       # insts written-back per cycle
system.cpu0.iew.wb_fanout                    0.464807                       # average fanout of values written-back
system.cpu0.iew.wb_penalized_rate                   0                       # fraction of instructions written-back that wrote to 'other' IQ
system.cpu0.commit.commitSquashedInsts          13059                       # The number of squashed insts skipped by commit
system.cpu0.commit.commitNonSpecStalls            210                       # The number of times commit has been forced to stall to communicate backwards
system.cpu0.commit.branchMispredicts              629                       # The number of times a branch was mispredicted
system.cpu0.commit.committed_per_cycle::samples        39522                       # Number of insts commited each cycle
system.cpu0.commit.committed_per_cycle::mean     0.751202                       # Number of insts commited each cycle
system.cpu0.commit.committed_per_cycle::stdev     1.735842                       # Number of insts commited each cycle
system.cpu0.commit.committed_per_cycle::underflows            0      0.00%      0.00% # Number of insts commited each cycle
system.cpu0.commit.committed_per_cycle::0        29986     75.87%     75.87% # Number of insts commited each cycle
system.cpu0.commit.committed_per_cycle::1         3451      8.73%     84.60% # Number of insts commited each cycle
system.cpu0.commit.committed_per_cycle::2         1485      3.76%     88.36% # Number of insts commited each cycle
system.cpu0.commit.committed_per_cycle::3          949      2.40%     90.76% # Number of insts commited each cycle
[...]
system.cpu7.icache.overall_miss_latency::cpu7.inst      5757500                       # number of overall miss cycles
system.cpu7.icache.overall_miss_latency::total      5757500                       # number of overall miss cycles
system.cpu7.icache.ReadReq_accesses::cpu7.inst          808                       # number of ReadReq accesses(hits+misses)
system.cpu7.icache.ReadReq_accesses::total          808                       # number of ReadReq accesses(hits+misses)
system.cpu7.icache.demand_accesses::cpu7.inst          808                       # number of demand (read+write) accesses
system.cpu7.icache.demand_accesses::total          808                       # number of demand (read+write) accesses
system.cpu7.icache.overall_accesses::cpu7.inst          808                       # number of overall (read+write) accesses
system.cpu7.icache.overall_accesses::total          808                       # number of overall (read+write) accesses
system.cpu7.icache.ReadReq_miss_rate::cpu7.inst     0.097772                       # miss rate for ReadReq accesses
system.cpu7.icache.ReadReq_miss_rate::total     0.097772                       # miss rate for ReadReq accesses
system.cpu7.icache.demand_miss_rate::cpu7.inst     0.097772                       # miss rate for demand accesses
system.cpu7.icache.demand_miss_rate::total     0.097772                       # miss rate for demand accesses
system.cpu7.icache.overall_miss_rate::cpu7.inst     0.097772                       # miss rate for overall accesses
system.cpu7.icache.overall_miss_rate::total     0.097772                       # miss rate for overall accesses
system.cpu7.icache.ReadReq_avg_miss_latency::cpu7.inst 72879.746835                       # average ReadReq miss latency
system.cpu7.icache.ReadReq_avg_miss_latency::total 72879.746835                       # average ReadReq miss latency
system.cpu7.icache.demand_avg_miss_latency::cpu7.inst 72879.746835                       # average overall miss latency
system.cpu7.icache.demand_avg_miss_latency::total 72879.746835                       # average overall miss latency
system.cpu7.icache.overall_avg_miss_latency::cpu7.inst 72879.746835                       # average overall miss latency
system.cpu7.icache.overall_avg_miss_latency::total 72879.746835                       # average overall miss latency
system.cpu7.icache.blocked_cycles::no_mshrs           78                       # number of cycles access was blocked
system.cpu7.icache.blocked_cycles::no_targets            0                       # number of cycles access was blocked
system.cpu7.icache.blocked::no_mshrs                1                       # number of cycles access was blocked
system.cpu7.icache.blocked::no_targets              0                       # number of cycles access was blocked
system.cpu7.icache.avg_blocked_cycles::no_mshrs           78                       # average number of cycles each access was blocked
system.cpu7.icache.avg_blocked_cycles::no_targets          nan                       # average number of cycles each access was blocked
system.cpu7.icache.fast_writes                      0                       # number of fast writes performed
system.cpu7.icache.cache_copies                     0                       # number of cache copies performed
system.cpu7.icache.ReadReq_mshr_hits::cpu7.inst           26                       # number of ReadReq MSHR hits
system.cpu7.icache.ReadReq_mshr_hits::total           26                       # number of ReadReq MSHR hits
system.cpu7.icache.demand_mshr_hits::cpu7.inst           26                       # number of demand (read+write) MSHR hits
system.cpu7.icache.demand_mshr_hits::total           26                       # number of demand (read+write) MSHR hits
system.cpu7.icache.overall_mshr_hits::cpu7.inst           26                       # number of overall MSHR hits
system.cpu7.icache.overall_mshr_hits::total           26                       # number of overall MSHR hits
system.cpu7.icache.ReadReq_mshr_misses::cpu7.inst           53                       # number of ReadReq MSHR misses
system.cpu7.icache.ReadReq_mshr_misses::total           53                       # number of ReadReq MSHR misses
system.cpu7.icache.demand_mshr_misses::cpu7.inst           53                       # number of demand (read+write) MSHR misses
system.cpu7.icache.demand_mshr_misses::total           53                       # number of demand (read+write) MSHR misses
system.cpu7.icache.overall_mshr_misses::cpu7.inst           53                       # number of overall MSHR misses
system.cpu7.icache.overall_mshr_misses::total           53                       # number of overall MSHR misses
system.cpu7.icache.ReadReq_mshr_miss_latency::cpu7.inst      4241750                       # number of ReadReq MSHR miss cycles
system.cpu7.icache.ReadReq_mshr_miss_latency::total      4241750                       # number of ReadReq MSHR miss cycles
system.cpu7.icache.demand_mshr_miss_latency::cpu7.inst      4241750                       # number of demand (read+write) MSHR miss cycles
system.cpu7.icache.demand_mshr_miss_latency::total      4241750                       # number of demand (read+write) MSHR miss cycles
system.cpu7.icache.overall_mshr_miss_latency::cpu7.inst      4241750                       # number of overall MSHR miss cycles
system.cpu7.icache.overall_mshr_miss_latency::total      4241750                       # number of overall MSHR miss cycles
system.cpu7.icache.ReadReq_mshr_miss_rate::cpu7.inst     0.065594                       # mshr miss rate for ReadReq accesses
system.cpu7.icache.ReadReq_mshr_miss_rate::total     0.065594                       # mshr miss rate for ReadReq accesses
system.cpu7.icache.demand_mshr_miss_rate::cpu7.inst     0.065594                       # mshr miss rate for demand accesses
system.cpu7.icache.demand_mshr_miss_rate::total     0.065594                       # mshr miss rate for demand accesses
system.cpu7.icache.overall_mshr_miss_rate::cpu7.inst     0.065594                       # mshr miss rate for overall accesses
system.cpu7.icache.overall_mshr_miss_rate::total     0.065594                       # mshr miss rate for overall accesses
system.cpu7.icache.ReadReq_avg_mshr_miss_latency::cpu7.inst 80033.018868                       # average ReadReq mshr miss latency
system.cpu7.icache.ReadReq_avg_mshr_miss_latency::total 80033.018868                       # average ReadReq mshr miss latency
system.cpu7.icache.demand_avg_mshr_miss_latency::cpu7.inst 80033.018868                       # average overall mshr miss latency
system.cpu7.icache.demand_avg_mshr_miss_latency::total 80033.018868                       # average overall mshr miss latency
system.cpu7.icache.overall_avg_mshr_miss_latency::cpu7.inst 80033.018868                       # average overall mshr miss latency
system.cpu7.icache.overall_avg_mshr_miss_latency::total 80033.018868                       # average overall mshr miss latency
system.cpu7.icache.no_allocate_misses               0                       # Number of misses that were no-allocate
system.membus.trans_dist::ReadReq                1465                       # Transaction distribution
system.membus.trans_dist::ReadResp               1464                       # Transaction distribution
system.membus.trans_dist::Writeback                10                       # Transaction distribution
system.membus.trans_dist::UpgradeReq               15                       # Transaction distribution
system.membus.trans_dist::SCUpgradeReq             24                       # Transaction distribution
system.membus.trans_dist::UpgradeResp              39                       # Transaction distribution
system.membus.trans_dist::SCUpgradeFailReq            2                       # Transaction distribution
system.membus.trans_dist::UpgradeFailResp            2                       # Transaction distribution
system.membus.trans_dist::ReadExReq               239                       # Transaction distribution
system.membus.trans_dist::ReadExResp              239                       # Transaction distribution
system.membus.pkt_count_system.cpu0.icache.mem_side::system.mem_ctrls.port         1199                       # Packet count per connected master and slave (bytes)
system.membus.pkt_count_system.cpu0.dcache.mem_side::system.mem_ctrls.port          708                       # Packet count per connected master and slave (bytes)
system.membus.pkt_count_system.cpu1.icache.mem_side::system.mem_ctrls.port          108                       # Packet count per connected master and slave (bytes)
system.membus.pkt_count_system.cpu1.dcache.mem_side::system.mem_ctrls.port           79                       # Packet count per connected master and slave (bytes)
system.membus.pkt_count_system.cpu2.icache.mem_side::system.mem_ctrls.port          108                       # Packet count per connected master and slave (bytes)
system.membus.pkt_count_system.cpu2.dcache.mem_side::system.mem_ctrls.port           75                       # Packet count per connected master and slave (bytes)
system.membus.pkt_count_system.cpu3.icache.mem_side::system.mem_ctrls.port          106                       # Packet count per connected master and slave (bytes)
system.membus.pkt_count_system.cpu3.dcache.mem_side::system.mem_ctrls.port           78                       # Packet count per connected master and slave (bytes)
system.membus.pkt_count_system.cpu4.icache.mem_side::system.mem_ctrls.port          104                       # Packet count per connected master and slave (bytes)
system.membus.pkt_count_system.cpu4.dcache.mem_side::system.mem_ctrls.port           77                       # Packet count per connected master and slave (bytes)
system.membus.pkt_count_system.cpu5.icache.mem_side::system.mem_ctrls.port          108                       # Packet count per connected master and slave (bytes)
system.membus.pkt_count_system.cpu5.dcache.mem_side::system.mem_ctrls.port           72                       # Packet count per connected master and slave (bytes)
system.membus.pkt_count_system.cpu6.icache.mem_side::system.mem_ctrls.port          116                       # Packet count per connected master and slave (bytes)
system.membus.pkt_count_system.cpu6.dcache.mem_side::system.mem_ctrls.port           80                       # Packet count per connected master and slave (bytes)
system.membus.pkt_count_system.cpu7.icache.mem_side::system.mem_ctrls.port          106                       # Packet count per connected master and slave (bytes)
system.membus.pkt_count_system.cpu7.dcache.mem_side::system.mem_ctrls.port           79                       # Packet count per connected master and slave (bytes)
system.membus.pkt_count::total                   3203                       # Packet count per connected master and slave (bytes)
system.membus.pkt_size_system.cpu0.icache.mem_side::system.mem_ctrls.port        38336                       # Cumulative packet size per connected master and slave (bytes)
system.membus.pkt_size_system.cpu0.dcache.mem_side::system.mem_ctrls.port        22272                       # Cumulative packet size per connected master and slave (bytes)
system.membus.pkt_size_system.cpu1.icache.mem_side::system.mem_ctrls.port         3456                       # Cumulative packet size per connected master and slave (bytes)
system.membus.pkt_size_system.cpu1.dcache.mem_side::system.mem_ctrls.port         1152                       # Cumulative packet size per connected master and slave (bytes)
system.membus.pkt_size_system.cpu2.icache.mem_side::system.mem_ctrls.port         3456                       # Cumulative packet size per connected master and slave (bytes)
system.membus.pkt_size_system.cpu2.dcache.mem_side::system.mem_ctrls.port         1152                       # Cumulative packet size per connected master and slave (bytes)
system.membus.pkt_size_system.cpu3.icache.mem_side::system.mem_ctrls.port         3392                       # Cumulative packet size per connected master and slave (bytes)
system.membus.pkt_size_system.cpu3.dcache.mem_side::system.mem_ctrls.port         1152                       # Cumulative packet size per connected master and slave (bytes)
system.membus.pkt_size_system.cpu4.icache.mem_side::system.mem_ctrls.port         3328                       # Cumulative packet size per connected master and slave (bytes)
system.membus.pkt_size_system.cpu4.dcache.mem_side::system.mem_ctrls.port         1152                       # Cumulative packet size per connected master and slave (bytes)
system.membus.pkt_size_system.cpu5.icache.mem_side::system.mem_ctrls.port         3456                       # Cumulative packet size per connected master and slave (bytes)
system.membus.pkt_size_system.cpu5.dcache.mem_side::system.mem_ctrls.port         1088                       # Cumulative packet size per connected master and slave (bytes)
system.membus.pkt_size_system.cpu6.icache.mem_side::system.mem_ctrls.port         3712                       # Cumulative packet size per connected master and slave (bytes)
system.membus.pkt_size_system.cpu6.dcache.mem_side::system.mem_ctrls.port         1152                       # Cumulative packet size per connected master and slave (bytes)
system.membus.pkt_size_system.cpu7.icache.mem_side::system.mem_ctrls.port         3392                       # Cumulative packet size per connected master and slave (bytes)
system.membus.pkt_size_system.cpu7.dcache.mem_side::system.mem_ctrls.port         1152                       # Cumulative packet size per connected master and slave (bytes)
system.membus.pkt_size::total                   92800                       # Cumulative packet size per connected master and slave (bytes)
system.membus.snoops                              296                       # Total snoops (count)
system.membus.snoop_fanout::samples              1755                       # Request fanout histogram
system.membus.snoop_fanout::mean                   15                       # Request fanout histogram
system.membus.snoop_fanout::stdev                   0                       # Request fanout histogram
system.membus.snoop_fanout::underflows              0      0.00%      0.00% # Request fanout histogram
system.membus.snoop_fanout::0                       0      0.00%      0.00% # Request fanout histogram
system.membus.snoop_fanout::1                       0      0.00%      0.00% # Request fanout histogram
system.membus.snoop_fanout::2                       0      0.00%      0.00% # Request fanout histogram
system.membus.snoop_fanout::3                       0      0.00%      0.00% # Request fanout histogram
system.membus.snoop_fanout::4                       0      0.00%      0.00% # Request fanout histogram
system.membus.snoop_fanout::5                       0      0.00%      0.00% # Request fanout histogram
system.membus.snoop_fanout::6                       0      0.00%      0.00% # Request fanout histogram
system.membus.snoop_fanout::7                       0      0.00%      0.00% # Request fanout histogram
system.membus.snoop_fanout::8                       0      0.00%      0.00% # Request fanout histogram
system.membus.snoop_fanout::9                       0      0.00%      0.00% # Request fanout histogram
system.membus.snoop_fanout::10                      0      0.00%      0.00% # Request fanout histogram
system.membus.snoop_fanout::11                      0      0.00%      0.00% # Request fanout histogram
system.membus.snoop_fanout::12                      0      0.00%      0.00% # Request fanout histogram
system.membus.snoop_fanout::13                      0      0.00%      0.00% # Request fanout histogram
system.membus.snoop_fanout::14                      0      0.00%      0.00% # Request fanout histogram
system.membus.snoop_fanout::15                   1755    100.00%    100.00% # Request fanout histogram
system.membus.snoop_fanout::16                      0      0.00%    100.00% # Request fanout histogram
system.membus.snoop_fanout::overflows               0      0.00%    100.00% # Request fanout histogram
system.membus.snoop_fanout::min_value              15                       # Request fanout histogram
system.membus.snoop_fanout::max_value              15                       # Request fanout histogram
system.membus.snoop_fanout::total                1755                       # Request fanout histogram
system.membus.reqLayer0.occupancy             2133998                       # Layer occupancy (ticks)
system.membus.reqLayer0.utilization               5.6                       # Layer utilization (%)
system.membus.respLayer1.occupancy            3183000                       # Layer occupancy (ticks)
system.membus.respLayer1.utilization              8.4                       # Layer utilization (%)
system.membus.respLayer2.occupancy            1858244                       # Layer occupancy (ticks)
system.membus.respLayer2.utilization              4.9                       # Layer utilization (%)
system.membus.respLayer5.occupancy             289250                       # Layer occupancy (ticks)
system.membus.respLayer5.utilization              0.8                       # Layer utilization (%)
system.membus.respLayer6.occupancy             302496                       # Layer occupancy (ticks)
system.membus.respLayer6.utilization              0.8                       # Layer utilization (%)
system.membus.respLayer9.occupancy             292500                       # Layer occupancy (ticks)
system.membus.respLayer9.utilization              0.8                       # Layer utilization (%)
system.membus.respLayer10.occupancy            279246                       # Layer occupancy (ticks)
system.membus.respLayer10.utilization             0.7                       # Layer utilization (%)
system.membus.respLayer13.occupancy            287500                       # Layer occupancy (ticks)
system.membus.respLayer13.utilization             0.8                       # Layer utilization (%)
system.membus.respLayer14.occupancy            294992                       # Layer occupancy (ticks)
system.membus.respLayer14.utilization             0.8                       # Layer utilization (%)
system.membus.respLayer17.occupancy            279000                       # Layer occupancy (ticks)
system.membus.respLayer17.utilization             0.7                       # Layer utilization (%)
system.membus.respLayer18.occupancy            288242                       # Layer occupancy (ticks)
system.membus.respLayer18.utilization             0.8                       # Layer utilization (%)
system.membus.respLayer21.occupancy            290748                       # Layer occupancy (ticks)
system.membus.respLayer21.utilization             0.8                       # Layer utilization (%)
system.membus.respLayer22.occupancy            266249                       # Layer occupancy (ticks)
system.membus.respLayer22.utilization             0.7                       # Layer utilization (%)
system.membus.respLayer25.occupancy            309500                       # Layer occupancy (ticks)
system.membus.respLayer25.utilization             0.8                       # Layer utilization (%)
system.membus.respLayer26.occupancy            297746                       # Layer occupancy (ticks)
system.membus.respLayer26.utilization             0.8                       # Layer utilization (%)
system.membus.respLayer29.occupancy            286750                       # Layer occupancy (ticks)
system.membus.respLayer29.utilization             0.8                       # Layer utilization (%)
system.membus.respLayer30.occupancy            287749                       # Layer occupancy (ticks)
system.membus.respLayer30.utilization             0.8                       # Layer utilization (%)

---------- End Simulation Statistics   ----------
