
---------- Begin Simulation Statistics ----------
sim_seconds                                  0.000041                       # Number of seconds simulated
sim_ticks                                    41272500                       # Number of ticks simulated
final_tick                                   41272500                       # Number of ticks from beginning of simulation (restored from checkpoints and never reset)
sim_freq                                 1000000000000                       # Frequency of simulated ticks
host_inst_rate                                 185831                       # Simulator instruction rate (inst/s)
host_op_rate                                   195187                       # Simulator op (including micro ops) rate (op/s)
host_tick_rate                               43828868                       # Simulator tick rate (ticks/s)
host_mem_usage                                 659988                       # Number of bytes of host memory used
host_seconds                                     0.94                       # Real time elapsed on the host
sim_insts                                      174986                       # Number of instructions simulated
sim_ops                                        183800                       # Number of ops (including micro ops) simulated
system.voltage_domain.voltage                       1                       # Voltage in Volts
system.clk_domain.clock                          1000                       # Clock period in ticks
system.mem_ctrls.bytes_read::cpu0.inst          38080                       # Number of bytes read from this memory
system.mem_ctrls.bytes_read::cpu0.data          25600                       # Number of bytes read from this memory
system.mem_ctrls.bytes_read::cpu1.inst           3264                       # Number of bytes read from this memory
system.mem_ctrls.bytes_read::cpu1.data           1152                       # Number of bytes read from this memory
system.mem_ctrls.bytes_read::cpu2.inst           3520                       # Number of bytes read from this memory
system.mem_ctrls.bytes_read::cpu2.data           1216                       # Number of bytes read from this memory
system.mem_ctrls.bytes_read::cpu3.inst           3392                       # Number of bytes read from this memory
system.mem_ctrls.bytes_read::cpu3.data           1152                       # Number of bytes read from this memory
system.mem_ctrls.bytes_read::total              77376                       # Number of bytes read from this memory
system.mem_ctrls.bytes_inst_read::cpu0.inst        38080                       # Number of instructions bytes read from this memory
system.mem_ctrls.bytes_inst_read::cpu1.inst         3264                       # Number of instructions bytes read from this memory
system.mem_ctrls.bytes_inst_read::cpu2.inst         3520                       # Number of instructions bytes read from this memory
system.mem_ctrls.bytes_inst_read::cpu3.inst         3392                       # Number of instructions bytes read from this memory
system.mem_ctrls.bytes_inst_read::total         48256                       # Number of instructions bytes read from this memory
system.mem_ctrls.bytes_written::writebacks          832                       # Number of bytes written to this memory
system.mem_ctrls.bytes_written::total             832                       # Number of bytes written to this memory
system.mem_ctrls.num_reads::cpu0.inst             595                       # Number of read requests responded to by this memory
system.mem_ctrls.num_reads::cpu0.data             400                       # Number of read requests responded to by this memory
system.mem_ctrls.num_reads::cpu1.inst              51                       # Number of read requests responded to by this memory
system.mem_ctrls.num_reads::cpu1.data              18                       # Number of read requests responded to by this memory
system.mem_ctrls.num_reads::cpu2.inst              55                       # Number of read requests responded to by this memory
system.mem_ctrls.num_reads::cpu2.data              19                       # Number of read requests responded to by this memory
system.mem_ctrls.num_reads::cpu3.inst              53                       # Number of read requests responded to by this memory
system.mem_ctrls.num_reads::cpu3.data              18                       # Number of read requests responded to by this memory
system.mem_ctrls.num_reads::total                1209                       # Number of read requests responded to by this memory
system.mem_ctrls.num_writes::writebacks            13                       # Number of write requests responded to by this memory
system.mem_ctrls.num_writes::total                 13                       # Number of write requests responded to by this memory
system.mem_ctrls.bw_read::cpu0.inst         922648252                       # Total read bandwidth from this memory (bytes/s)
system.mem_ctrls.bw_read::cpu0.data         620267733                       # Total read bandwidth from this memory (bytes/s)
system.mem_ctrls.bw_read::cpu1.inst          79084136                       # Total read bandwidth from this memory (bytes/s)
system.mem_ctrls.bw_read::cpu1.data          27912048                       # Total read bandwidth from this memory (bytes/s)
system.mem_ctrls.bw_read::cpu2.inst          85286813                       # Total read bandwidth from this memory (bytes/s)
system.mem_ctrls.bw_read::cpu2.data          29462717                       # Total read bandwidth from this memory (bytes/s)
system.mem_ctrls.bw_read::cpu3.inst          82185475                       # Total read bandwidth from this memory (bytes/s)
system.mem_ctrls.bw_read::cpu3.data          27912048                       # Total read bandwidth from this memory (bytes/s)
system.mem_ctrls.bw_read::total            1874759222                       # Total read bandwidth from this memory (bytes/s)
system.mem_ctrls.bw_inst_read::cpu0.inst    922648252                       # Instruction read bandwidth from this memory (bytes/s)
system.mem_ctrls.bw_inst_read::cpu1.inst     79084136                       # Instruction read bandwidth from this memory (bytes/s)
system.mem_ctrls.bw_inst_read::cpu2.inst     85286813                       # Instruction read bandwidth from this memory (bytes/s)
system.mem_ctrls.bw_inst_read::cpu3.inst     82185475                       # Instruction read bandwidth from this memory (bytes/s)
system.mem_ctrls.bw_inst_read::total       1169204676                       # Instruction read bandwidth from this memory (bytes/s)
system.mem_ctrls.bw_write::writebacks        20158701                       # Write bandwidth from this memory (bytes/s)
system.mem_ctrls.bw_write::total             20158701                       # Write bandwidth from this memory (bytes/s)
system.mem_ctrls.bw_total::writebacks        20158701                       # Total bandwidth to/from this memory (bytes/s)
system.mem_ctrls.bw_total::cpu0.inst        922648252                       # Total bandwidth to/from this memory (bytes/s)
system.mem_ctrls.bw_total::cpu0.data        620267733                       # Total bandwidth to/from this memory (bytes/s)
system.mem_ctrls.bw_total::cpu1.inst         79084136                       # Total bandwidth to/from this memory (bytes/s)
system.mem_ctrls.bw_total::cpu1.data         27912048                       # Total bandwidth to/from this memory (bytes/s)
system.mem_ctrls.bw_total::cpu2.inst         85286813                       # Total bandwidth to/from this memory (bytes/s)
system.mem_ctrls.bw_total::cpu2.data         29462717                       # Total bandwidth to/from this memory (bytes/s)
system.mem_ctrls.bw_total::cpu3.inst         82185475                       # Total bandwidth to/from this memory (bytes/s)
system.mem_ctrls.bw_total::cpu3.data         27912048                       # Total bandwidth to/from this memory (bytes/s)
system.mem_ctrls.bw_total::total           1894917924                       # Total bandwidth to/from this memory (bytes/s)
system.mem_ctrls.readReqs                        1210                       # Number of read requests accepted
system.mem_ctrls.writeReqs                         13                       # Number of write requests accepted
system.mem_ctrls.readBursts                      1210                       # Number of DRAM read bursts, including those serviced by the write queue
system.mem_ctrls.writeBursts                       13                       # Number of DRAM write bursts, including those merged in the write queue
system.mem_ctrls.bytesReadDRAM                  76608                       # Total number of bytes read from DRAM
system.mem_ctrls.bytesReadWrQ                     832                       # Total number of bytes read from write queue
system.mem_ctrls.bytesWritten                       0                       # Total number of bytes written to DRAM
system.mem_ctrls.bytesReadSys                   77440                       # Total read bytes from the system interface side
system.mem_ctrls.bytesWrittenSys                  832                       # Total written bytes from the system interface side
system.mem_ctrls.servicedByWrQ                     13                       # Number of DRAM read bursts serviced by the write queue
system.mem_ctrls.mergedWrBursts                     2                       # Number of DRAM write bursts merged with an existing one
system.mem_ctrls.neitherReadNorWriteReqs            8                       # Number of requests that are neither read nor write
system.mem_ctrls.perBankRdBursts::0               173                       # Per bank write bursts
system.mem_ctrls.perBankRdBursts::1               231                       # Per bank write bursts
system.mem_ctrls.perBankRdBursts::2               175                       # Per bank write bursts
system.mem_ctrls.perBankRdBursts::3               212                       # Per bank write bursts
system.mem_ctrls.perBankRdBursts::4                42                       # Per bank write bursts
system.mem_ctrls.perBankRdBursts::5                34                       # Per bank write bursts
system.mem_ctrls.perBankRdBursts::6               107                       # Per bank write bursts
system.mem_ctrls.perBankRdBursts::7                35                       # Per bank write bursts
system.mem_ctrls.perBankRdBursts::8                14                       # Per bank write bursts
system.mem_ctrls.perBankRdBursts::9                10                       # Per bank write bursts
system.mem_ctrls.perBankRdBursts::10                0                       # Per bank write bursts
system.mem_ctrls.perBankRdBursts::11               14                       # Per bank write bursts
system.mem_ctrls.perBankRdBursts::12                9                       # Per bank write bursts
system.mem_ctrls.perBankRdBursts::13               38                       # Per bank write bursts
system.mem_ctrls.perBankRdBursts::14               40                       # Per bank write bursts
system.mem_ctrls.perBankRdBursts::15               63                       # Per bank write bursts
system.mem_ctrls.perBankWrBursts::0                 0                       # Per bank write bursts
system.mem_ctrls.perBankWrBursts::1                 0                       # Per bank write bursts
system.mem_ctrls.perBankWrBursts::2                 0                       # Per bank write bursts
system.mem_ctrls.perBankWrBursts::3                 0                       # Per bank write bursts
system.mem_ctrls.perBankWrBursts::4                 0                       # Per bank write bursts
system.mem_ctrls.perBankWrBursts::5                 0                       # Per bank write bursts
system.mem_ctrls.perBankWrBursts::6                 0                       # Per bank write bursts
system.mem_ctrls.perBankWrBursts::7                 0                       # Per bank write bursts
system.mem_ctrls.perBankWrBursts::8                 0                       # Per bank write bursts
system.mem_ctrls.perBankWrBursts::9                 0                       # Per bank write bursts
system.mem_ctrls.perBankWrBursts::10                0                       # Per bank write bursts
system.mem_ctrls.perBankWrBursts::11                0                       # Per bank write bursts
system.mem_ctrls.perBankWrBursts::12                0                       # Per bank write bursts
system.mem_ctrls.perBankWrBursts::13                0                       # Per bank write bursts
system.mem_ctrls.perBankWrBursts::14                0                       # Per bank write bursts
system.mem_ctrls.perBankWrBursts::15                0                       # Per bank write bursts
system.mem_ctrls.numRdRetry                         0                       # Number of times read queue was full causing retry
system.mem_ctrls.numWrRetry                         0                       # Number of times write queue was full causing retry
system.mem_ctrls.totGap                      41265000                       # Total gap between requests
system.mem_ctrls.readPktSize::0                     0                       # Read request sizes (log2)
system.mem_ctrls.readPktSize::1                     0                       # Read request sizes (log2)
system.mem_ctrls.readPktSize::2                     0                       # Read request sizes (log2)
system.mem_ctrls.readPktSize::3                     0                       # Read request sizes (log2)
system.mem_ctrls.readPktSize::4                     0                       # Read request sizes (log2)
system.mem_ctrls.readPktSize::5                     0                       # Read request sizes (log2)
system.mem_ctrls.readPktSize::6                  1210                       # Read request sizes (log2)
system.mem_ctrls.writePktSize::0                    0                       # Write request sizes (log2)
system.mem_ctrls.writePktSize::1                    0                       # Write request sizes (log2)
system.mem_ctrls.writePktSize::2                    0                       # Write request sizes (log2)
system.mem_ctrls.writePktSize::3                    0                       # Write request sizes (log2)
system.mem_ctrls.writePktSize::4                    0                       # Write request sizes (log2)
system.mem_ctrls.writePktSize::5                    0                       # Write request sizes (log2)
system.mem_ctrls.writePktSize::6                   13                       # Write request sizes (log2)
system.mem_ctrls.rdQLenPdf::0                     554                       # What read queue length does an incoming req see
system.mem_ctrls.rdQLenPdf::1                     358                       # What read queue length does an incoming req see
system.mem_ctrls.rdQLenPdf::2                     127                       # What read queue length does an incoming req see
system.mem_ctrls.rdQLenPdf::3                      68                       # What read queue length does an incoming req see
system.mem_ctrls.rdQLenPdf::4                      43                       # What read queue length does an incoming req see
system.mem_ctrls.rdQLenPdf::5                      28                       # What read queue length does an incoming req see
system.mem_ctrls.rdQLenPdf::6                      12                       # What read queue length does an incoming req see
system.mem_ctrls.rdQLenPdf::7                       4                       # What read queue length does an incoming req see
system.mem_ctrls.rdQLenPdf::8                       2                       # What read queue length does an incoming req see
system.mem_ctrls.rdQLenPdf::9                       1                       # What read queue length does an incoming req see
system.mem_ctrls.rdQLenPdf::10                      0                       # What read queue length does an incoming req see
system.mem_ctrls.rdQLenPdf::11                      0                       # What read queue length does an incoming req see
system.mem_ctrls.rdQLenPdf::12                      0                       # What read queue length does an incoming req see
system.mem_ctrls.rdQLenPdf::13                      0                       # What read queue length does an incoming req see
system.mem_ctrls.rdQLenPdf::14                      0                       # What read queue length does an incoming req see
system.mem_ctrls.rdQLenPdf::15                      0                       # What read queue length does an incoming req see
system.mem_ctrls.rdQLenPdf::16                      0                       # What read queue length does an incoming req see
system.mem_ctrls.rdQLenPdf::17                      0                       # What read queue length does an incoming req see
system.mem_ctrls.rdQLenPdf::18                      0                       # What read queue length does an incoming req see
system.mem_ctrls.rdQLenPdf::19                      0                       # What read queue length does an incoming req see
system.mem_ctrls.rdQLenPdf::20                      0                       # What read queue length does an incoming req see
system.mem_ctrls.rdQLenPdf::21                      0                       # What read queue length does an incoming req see
system.mem_ctrls.rdQLenPdf::22                      0                       # What read queue length does an incoming req see
system.mem_ctrls.rdQLenPdf::23                      0                       # What read queue length does an incoming req see
system.mem_ctrls.rdQLenPdf::24                      0                       # What read queue length does an incoming req see
system.mem_ctrls.rdQLenPdf::25                      0                       # What read queue length does an incoming req see
system.mem_ctrls.rdQLenPdf::26                      0                       # What read queue length does an incoming req see
system.mem_ctrls.rdQLenPdf::27                      0                       # What read queue length does an incoming req see
system.mem_ctrls.rdQLenPdf::28                      0                       # What read queue length does an incoming req see
system.mem_ctrls.rdQLenPdf::29                      0                       # What read queue length does an incoming req see
system.mem_ctrls.rdQLenPdf::30                      0                       # What read queue length does an incoming req see
system.mem_ctrls.rdQLenPdf::31                      0                       # What read queue length does an incoming req see
system.mem_ctrls.wrQLenPdf::0                       1                       # What write queue length does an incoming req see
system.mem_ctrls.wrQLenPdf::1                       1                       # What write queue length does an incoming req see
system.mem_ctrls.wrQLenPdf::2                       1                       # What write queue length does an incoming req see
system.mem_ctrls.wrQLenPdf::3                       1                       # What write queue length does an incoming req see
system.mem_ctrls.wrQLenPdf::4                       1                       # What write queue length does an incoming req see
system.mem_ctrls.wrQLenPdf::5                       1                       # What write queue length does an incoming req see
system.mem_ctrls.wrQLenPdf::6                       1                       # What write queue length does an incoming req see
system.mem_ctrls.wrQLenPdf::7                       1                       # What write queue length does an incoming req see
system.mem_ctrls.wrQLenPdf::8                       1                       # What write queue length does an incoming req see
system.mem_ctrls.wrQLenPdf::9                       1                       # What write queue length does an incoming req see
system.mem_ctrls.wrQLenPdf::10                      1                       # What write queue length does an incoming req see
system.mem_ctrls.wrQLenPdf::11                      0                       # What write queue length does an incoming req see
system.mem_ctrls.wrQLenPdf::12                      0                       # What write queue length does an incoming req see
system.mem_ctrls.wrQLenPdf::13                      0                       # What write queue length does an incoming req see
system.mem_ctrls.wrQLenPdf::14                      0                       # What write queue length does an incoming req see
system.mem_ctrls.wrQLenPdf::15                      0                       # What write queue length does an incoming req see
system.mem_ctrls.wrQLenPdf::16                      0                       # What write queue length does an incoming req see
system.mem_ctrls.wrQLenPdf::17                      0                       # What write queue length does an incoming req see
system.mem_ctrls.wrQLenPdf::18                      0                       # What write queue length does an incoming req see
system.mem_ctrls.wrQLenPdf::19                      0                       # What write queue length does an incoming req see
system.mem_ctrls.wrQLenPdf::20                      0                       # What write queue length does an incoming req see
system.mem_ctrls.wrQLenPdf::21                      0                       # What write queue length does an incoming req see
system.mem_ctrls.wrQLenPdf::22                      0                       # What write queue length does an incoming req see
system.mem_ctrls.wrQLenPdf::23                      0                       # What write queue length does an incoming req see
system.mem_ctrls.wrQLenPdf::24                      0                       # What write queue length does an incoming req see
system.mem_ctrls.wrQLenPdf::25                      0                       # What write queue length does an incoming req see
system.mem_ctrls.wrQLenPdf::26                      0                       # What write queue length does an incoming req see
system.mem_ctrls.wrQLenPdf::27                      0                       # What write queue length does an incoming req see
system.mem_ctrls.wrQLenPdf::28                      0                       # What write queue length does an incoming req see
system.mem_ctrls.wrQLenPdf::29                      0                       # What write queue length does an incoming req see
system.mem_ctrls.wrQLenPdf::30                      0                       # What write queue length does an incoming req see
system.mem_ctrls.wrQLenPdf::31                      0                       # What write queue length does an incoming req see
system.mem_ctrls.wrQLenPdf::32                      0                       # What write queue length does an incoming req see
system.mem_ctrls.wrQLenPdf::33                      0                       # What write queue length does an incoming req see
system.mem_ctrls.wrQLenPdf::34                      0                       # What write queue length does an incoming req see
system.mem_ctrls.wrQLenPdf::35                      0                       # What write queue length does an incoming req see
system.mem_ctrls.wrQLenPdf::36                      0                       # What write queue length does an incoming req see
system.mem_ctrls.wrQLenPdf::37                      0                       # What write queue length does an incoming req see
system.mem_ctrls.wrQLenPdf::38                      0                       # What write queue length does an incoming req see
system.mem_ctrls.wrQLenPdf::39                      0                       # What write queue length does an incoming req see
system.mem_ctrls.wrQLenPdf::40                      0                       # What write queue length does an incoming req see
system.mem_ctrls.wrQLenPdf::41                      0                       # What write queue length does an incoming req see
system.mem_ctrls.wrQLenPdf::42                      0                       # What write queue length does an incoming req see
system.mem_ctrls.wrQLenPdf::43                      0                       # What write queue length does an incoming req see
system.mem_ctrls.wrQLenPdf::44                      0                       # What write queue length does an incoming req see
system.mem_ctrls.wrQLenPdf::45                      0                       # What write queue length does an incoming req see
system.mem_ctrls.wrQLenPdf::46                      0                       # What write queue length does an incoming req see
system.mem_ctrls.wrQLenPdf::47                      0                       # What write queue length does an incoming req see
system.mem_ctrls.wrQLenPdf::48                      0                       # What write queue length does an incoming req see
system.mem_ctrls.wrQLenPdf::49                      0                       # What write queue length does an incoming req see
system.mem_ctrls.wrQLenPdf::50                      0                       # What write queue length does an incoming req see
system.mem_ctrls.wrQLenPdf::51                      0                       # What write queue length does an incoming req see
system.mem_ctrls.wrQLenPdf::52                      0                       # What write queue length does an incoming req see
system.mem_ctrls.wrQLenPdf::53                      0                       # What write queue length does an incoming req see
system.mem_ctrls.wrQLenPdf::54                      0                       # What write queue length does an incoming req see
system.mem_ctrls.wrQLenPdf::55                      0                       # What write queue length does an incoming req see
system.mem_ctrls.wrQLenPdf::56                      0                       # What write queue length does an incoming req see
system.mem_ctrls.wrQLenPdf::57                      0                       # What write queue length does an incoming req see
system.mem_ctrls.wrQLenPdf::58                      0                       # What write queue length does an incoming req see
system.mem_ctrls.wrQLenPdf::59                      0                       # What write queue length does an incoming req see
system.mem_ctrls.wrQLenPdf::60                      0                       # What write queue length does an incoming req see
system.mem_ctrls.wrQLenPdf::61                      0                       # What write queue length does an incoming req see
system.mem_ctrls.wrQLenPdf::62                      0                       # What write queue length does an incoming req see
system.mem_ctrls.wrQLenPdf::63                      0                       # What write queue length does an incoming req see
system.mem_ctrls.bytesPerActivate::samples          218                       # Bytes accessed per row activation
system.mem_ctrls.bytesPerActivate::mean    341.724771                       # Bytes accessed per row activation
system.mem_ctrls.bytesPerActivate::gmean   204.525667                       # Bytes accessed per row activation
system.mem_ctrls.bytesPerActivate::stdev   334.925808                       # Bytes accessed per row activation
system.mem_ctrls.bytesPerActivate::0-127           75     34.40%     34.40% # Bytes accessed per row activation
system.mem_ctrls.bytesPerActivate::128-255           47     21.56%     55.96% # Bytes accessed per row activation
system.mem_ctrls.bytesPerActivate::256-383           19      8.72%     64.68% # Bytes accessed per row activation
system.mem_ctrls.bytesPerActivate::384-511           18      8.26%     72.94% # Bytes accessed per row activation
system.mem_ctrls.bytesPerActivate::512-639           11      5.05%     77.98% # Bytes accessed per row activation
system.mem_ctrls.bytesPerActivate::640-767           10      4.59%     82.57% # Bytes accessed per row activation
system.mem_ctrls.bytesPerActivate::768-895            9      4.13%     86.70% # Bytes accessed per row activation
system.mem_ctrls.bytesPerActivate::896-1023            2      0.92%     87.61% # Bytes accessed per row activation
system.mem_ctrls.bytesPerActivate::1024-1151           27     12.39%    100.00% # Bytes accessed per row activation
system.mem_ctrls.bytesPerActivate::total          218                       # Bytes accessed per row activation
system.mem_ctrls.totQLat                     13722750                       # Total ticks spent queuing
system.mem_ctrls.totMemAccLat                36166500                       # Total ticks spent from burst creation until serviced by the DRAM
system.mem_ctrls.totBusLat                    5985000                       # Total ticks spent in databus transfers
system.mem_ctrls.avgQLat                     11464.29                       # Average queueing delay per DRAM burst
system.mem_ctrls.avgBusLat                    5000.00                       # Average bus latency per DRAM burst
system.mem_ctrls.avgMemAccLat                30214.29                       # Average memory access latency per DRAM burst
system.mem_ctrls.avgRdBW                      1856.15                       # Average DRAM read bandwidth in MiByte/s
system.mem_ctrls.avgWrBW                         0.00                       # Average achieved write bandwidth in MiByte/s
system.mem_ctrls.avgRdBWSys                   1876.31                       # Average system read bandwidth in MiByte/s
system.mem_ctrls.avgWrBWSys                     20.16                       # Average system write bandwidth in MiByte/s
system.mem_ctrls.peakBW                      12800.00                       # Theoretical peak bandwidth in MiByte/s
system.mem_ctrls.busUtil                        14.50                       # Data bus utilization in percentage
system.mem_ctrls.busUtilRead                    14.50                       # Data bus utilization in percentage for reads
system.mem_ctrls.busUtilWrite                    0.00                       # Data bus utilization in percentage for writes
system.mem_ctrls.avgRdQLen                       1.92                       # Average read queue length when enqueuing
system.mem_ctrls.avgWrQLen                       3.05                       # Average write queue length when enqueuing
system.mem_ctrls.readRowHits                      969                       # Number of row buffer hits during reads
system.mem_ctrls.writeRowHits                       0                       # Number of row buffer hits during writes
system.mem_ctrls.readRowHitRate                 80.95                       # Row buffer hit rate for reads
system.mem_ctrls.writeRowHitRate                 0.00                       # Row buffer hit rate for writes
system.mem_ctrls.avgGap                      33740.80                       # Average gap between requests
system.mem_ctrls.pageHitRate                    80.22                       # Row buffer hit rate, read and write combined
system.mem_ctrls_0.actEnergy                  1383480                       # Energy for activate commands per rank (pJ)
system.mem_ctrls_0.preEnergy                   754875                       # Energy for precharge commands per rank (pJ)
system.mem_ctrls_0.readEnergy                 7683000                       # Energy for read commands per rank (pJ)
system.mem_ctrls_0.writeEnergy                      0                       # Energy for write commands per rank (pJ)
system.mem_ctrls_0.refreshEnergy              2542800                       # Energy for refresh commands per rank (pJ)
system.mem_ctrls_0.actBackEnergy             26623845                       # Energy for active background per rank (pJ)
system.mem_ctrls_0.preBackEnergy               160500                       # Energy for precharge background per rank (pJ)
system.mem_ctrls_0.totalEnergy               39148500                       # Total energy per rank (pJ)
system.mem_ctrls_0.averagePower            998.909195                       # Core power per rank (mW)
system.mem_ctrls_0.memoryStateTime::IDLE        89000                       # Time in different power states
system.mem_ctrls_0.memoryStateTime::REF       1300000                       # Time in different power states
system.mem_ctrls_0.memoryStateTime::PRE_PDN            0                       # Time in different power states
system.mem_ctrls_0.memoryStateTime::ACT      37816000                       # Time in different power states
system.mem_ctrls_0.memoryStateTime::ACT_PDN            0                       # Time in different power states
system.mem_ctrls_1.actEnergy                   211680                       # Energy for activate commands per rank (pJ)
system.mem_ctrls_1.preEnergy                   115500                       # Energy for precharge commands per rank (pJ)
system.mem_ctrls_1.readEnergy                 1162200                       # Energy for read commands per rank (pJ)
system.mem_ctrls_1.writeEnergy                      0                       # Energy for write commands per rank (pJ)
system.mem_ctrls_1.refreshEnergy              2542800                       # Energy for refresh commands per rank (pJ)
system.mem_ctrls_1.actBackEnergy             24443595                       # Energy for active background per rank (pJ)
system.mem_ctrls_1.preBackEnergy              2073000                       # Energy for precharge background per rank (pJ)
system.mem_ctrls_1.totalEnergy               30548775                       # Total energy per rank (pJ)
system.mem_ctrls_1.averagePower            779.479476                       # Core power per rank (mW)
system.mem_ctrls_1.memoryStateTime::IDLE      3487750                       # Time in different power states
system.mem_ctrls_1.memoryStateTime::REF       1300000                       # Time in different power states
system.mem_ctrls_1.memoryStateTime::PRE_PDN            0                       # Time in different power states
system.mem_ctrls_1.memoryStateTime::ACT      34575250                       # Time in different power states
system.mem_ctrls_1.memoryStateTime::ACT_PDN            0                       # Time in different power states
system.cpu0.branchPred.lookups                  11643                       # Number of BP lookups
system.cpu0.branchPred.condPredicted             9437                       # Number of conditional branches predicted
system.cpu0.branchPred.condIncorrect             1025                       # Number of conditional branches incorrect
system.cpu0.branchPred.BTBLookups                8440                       # Number of BTB lookups
system.cpu0.branchPred.BTBHits                   5385                       # Number of BTB hits
system.cpu0.branchPred.BTBCorrect                   0                       # Number of correct BTB predictions (this stat may not work properly.
system.cpu0.branchPred.BTBHitPct            63.803318                       # BTB Hit Percentage
system.cpu0.branchPred.usedRAS                    869                       # Number of times the RAS was used to get a target.
system.cpu0.branchPred.RASInCorrect                15                       # Number of incorrect RAS predictions.
system.cpu_voltage_domain.voltage                   1                       # Voltage in Volts
system.cpu_clk_domain.clock                       500                       # Clock period in ticks
system.cpu0.dstage2_mmu.stage2_tlb.walker.walks            0                       # Table walker walks requested
system.cpu0.dstage2_mmu.stage2_tlb.walker.walkRequestOrigin_Requested::Data            0                       # Table walker requests started/completed, data/inst
system.cpu0.dstage2_mmu.stage2_tlb.walker.walkRequestOrigin_Requested::Inst            0                       # Table walker requests started/completed, data/inst
system.cpu0.dstage2_mmu.stage2_tlb.walker.walkRequestOrigin_Requested::total            0                       # Table walker requests started/completed, data/inst
system.cpu0.dstage2_mmu.stage2_tlb.walker.walkRequestOrigin_Completed::Data            0                       # Table walker requests started/completed, data/inst
system.cpu0.dstage2_mmu.stage2_tlb.walker.walkRequestOrigin_Completed::Inst            0                       # Table walker requests started/completed, data/inst
system.cpu0.dstage2_mmu.stage2_tlb.walker.walkRequestOrigin_Completed::total            0                       # Table walker requests started/completed, data/inst
system.cpu0.dstage2_mmu.stage2_tlb.walker.walkRequestOrigin::total            0                       # Table walker requests started/completed, data/inst
system.cpu0.dstage2_mmu.stage2_tlb.inst_hits            0                       # ITB inst hits
system.cpu0.dstage2_mmu.stage2_tlb.inst_misses            0                       # ITB inst misses
system.cpu0.dstage2_mmu.stage2_tlb.read_hits            0                       # DTB read hits
system.cpu0.dstage2_mmu.stage2_tlb.read_misses            0                       # DTB read misses
system.cpu0.dstage2_mmu.stage2_tlb.write_hits            0                       # DTB write hits
system.cpu0.dstage2_mmu.stage2_tlb.write_misses            0                       # DTB write misses
system.cpu0.dstage2_mmu.stage2_tlb.flush_tlb            0                       # Number of times complete TLB was flushed
system.cpu0.dstage2_mmu.stage2_tlb.flush_tlb_mva            0                       # Number of times TLB was flushed by MVA
system.cpu0.dstage2_mmu.stage2_tlb.flush_tlb_mva_asid            0                       # Number of times TLB was flushed by MVA & ASID
system.cpu0.dstage2_mmu.stage2_tlb.flush_tlb_asid            0                       # Number of times TLB was flushed by ASID
system.cpu0.dstage2_mmu.stage2_tlb.flush_entries            0                       # Number of entries that have been flushed from TLB
system.cpu0.dstage2_mmu.stage2_tlb.align_faults            0                       # Number of TLB faults due to alignment restrictions
system.cpu0.dstage2_mmu.stage2_tlb.prefetch_faults            0                       # Number of TLB faults due to prefetch
system.cpu0.dstage2_mmu.stage2_tlb.domain_faults            0                       # Number of TLB faults due to domain restrictions
system.cpu0.dstage2_mmu.stage2_tlb.perms_faults            0                       # Number of TLB faults due to permissions restrictions
system.cpu0.dstage2_mmu.stage2_tlb.read_accesses            0                       # DTB read accesses
system.cpu0.dstage2_mmu.stage2_tlb.write_accesses            0                       # DTB write accesses
system.cpu0.dstage2_mmu.stage2_tlb.inst_accesses            0                       # ITB inst accesses
system.cpu0.dstage2_mmu.stage2_tlb.hits             0                       # DTB hits
system.cpu0.dstage2_mmu.stage2_tlb.misses            0                       # DTB misses
system.cpu0.dstage2_mmu.stage2_tlb.accesses            0                       # DTB accesses
system.cpu0.dtb.walker.walks                        0                       # Table walker walks requested
system.cpu0.dtb.walker.walkRequestOrigin_Requested::Data            0                       # Table walker requests started/completed, data/inst
system.cpu0.dtb.walker.walkRequestOrigin_Requested::Inst            0                       # Table walker requests started/completed, data/inst
system.cpu0.dtb.walker.walkRequestOrigin_Requested::total            0                       # Table walker requests started/completed, data/inst
system.cpu0.dtb.walker.walkRequestOrigin_Completed::Data            0                       # Table walker requests started/completed, data/inst
system.cpu0.dtb.walker.walkRequestOrigin_Completed::Inst            0                       # Table walker requests started/completed, data/inst
system.cpu0.dtb.walker.walkRequestOrigin_Completed::total            0                       # Table walker requests started/completed, data/inst
system.cpu0.dtb.walker.walkRequestOrigin::total            0                       # Table walker requests started/completed, data/inst
system.cpu0.dtb.inst_hits                           0                       # ITB inst hits
system.cpu0.dtb.inst_misses                         0                       # ITB inst misses
system.cpu0.dtb.read_hits                           0                       # DTB read hits
system.cpu0.dtb.read_misses                         0                       # DTB read misses
system.cpu0.dtb.write_hits                          0                       # DTB write hits
system.cpu0.dtb.write_misses                        0                       # DTB write misses
system.cpu0.dtb.flush_tlb                           0                       # Number of times complete TLB was flushed
system.cpu0.dtb.flush_tlb_mva                       0                       # Number of times TLB was flushed by MVA
system.cpu0.dtb.flush_tlb_mva_asid                  0                       # Number of times TLB was flushed by MVA & ASID
system.cpu0.dtb.flush_tlb_asid                      0                       # Number of times TLB was flushed by ASID
system.cpu0.dtb.flush_entries                       0                       # Number of entries that have been flushed from TLB
system.cpu0.dtb.align_faults                        0                       # Number of TLB faults due to alignment restrictions
system.cpu0.dtb.prefetch_faults                     0                       # Number of TLB faults due to prefetch
system.cpu0.dtb.domain_faults                       0                       # Number of TLB faults due to domain restrictions
system.cpu0.dtb.perms_faults                        0                       # Number of TLB faults due to permissions restrictions
system.cpu0.dtb.read_accesses                       0                       # DTB read accesses
system.cpu0.dtb.write_accesses                      0                       # DTB write accesses
system.cpu0.dtb.inst_accesses                       0                       # ITB inst accesses
system.cpu0.dtb.hits                                0                       # DTB hits
system.cpu0.dtb.misses                              0                       # DTB misses
system.cpu0.dtb.accesses                            0                       # DTB accesses
system.cpu0.istage2_mmu.stage2_tlb.walker.walks            0                       # Table walker walks requested
system.cpu0.istage2_mmu.stage2_tlb.walker.walkRequestOrigin_Requested::Data            0                       # Table walker requests started/completed, data/inst
system.cpu0.istage2_mmu.stage2_tlb.walker.walkRequestOrigin_Requested::Inst            0                       # Table walker requests started/completed, data/inst
system.cpu0.istage2_mmu.stage2_tlb.walker.walkRequestOrigin_Requested::total            0                       # Table walker requests started/completed, data/inst
system.cpu0.istage2_mmu.stage2_tlb.walker.walkRequestOrigin_Completed::Data            0                       # Table walker requests started/completed, data/inst
system.cpu0.istage2_mmu.stage2_tlb.walker.walkRequestOrigin_Completed::Inst            0                       # Table walker requests started/completed, data/inst
system.cpu0.istage2_mmu.stage2_tlb.walker.walkRequestOrigin_Completed::total            0                       # Table walker requests started/completed, data/inst
system.cpu0.istage2_mmu.stage2_tlb.walker.walkRequestOrigin::total            0                       # Table walker requests started/completed, data/inst
system.cpu0.istage2_mmu.stage2_tlb.inst_hits            0                       # ITB inst hits
system.cpu0.istage2_mmu.stage2_tlb.inst_misses            0                       # ITB inst misses
system.cpu0.istage2_mmu.stage2_tlb.read_hits            0                       # DTB read hits
system.cpu0.istage2_mmu.stage2_tlb.read_misses            0                       # DTB read misses
system.cpu0.istage2_mmu.stage2_tlb.write_hits            0                       # DTB write hits
system.cpu0.istage2_mmu.stage2_tlb.write_misses            0                       # DTB write misses
system.cpu0.istage2_mmu.stage2_tlb.flush_tlb            0                       # Number of times complete TLB was flushed
system.cpu0.istage2_mmu.stage2_tlb.flush_tlb_mva            0                       # Number of times TLB was flushed by MVA
system.cpu0.istage2_mmu.stage2_tlb.flush_tlb_mva_asid            0                       # Number of times TLB was flushed by MVA & ASID
system.cpu0.istage2_mmu.stage2_tlb.flush_tlb_asid            0                       # Number of times TLB was flushed by ASID
system.cpu0.istage2_mmu.stage2_tlb.flush_entries            0                       # Number of entries that have been flushed from TLB
system.cpu0.istage2_mmu.stage2_tlb.align_faults            0                       # Number of TLB faults due to alignment restrictions
system.cpu0.istage2_mmu.stage2_tlb.prefetch_faults            0                       # Number of TLB faults due to prefetch
system.cpu0.istage2_mmu.stage2_tlb.domain_faults            0                       # Number of TLB faults due to domain restrictions
system.cpu0.istage2_mmu.stage2_tlb.perms_faults            0                       # Number of TLB faults due to permissions restrictions
system.cpu0.istage2_mmu.stage2_tlb.read_accesses            0                       # DTB read accesses
system.cpu0.istage2_mmu.stage2_tlb.write_accesses            0                       # DTB write accesses
system.cpu0.istage2_mmu.stage2_tlb.inst_accesses            0                       # ITB inst accesses
system.cpu0.istage2_mmu.stage2_tlb.hits             0                       # DTB hits
system.cpu0.istage2_mmu.stage2_tlb.misses            0                       # DTB misses
system.cpu0.istage2_mmu.stage2_tlb.accesses            0                       # DTB accesses
system.cpu0.itb.walker.walks                        0                       # Table walker walks requested
system.cpu0.itb.walker.walkRequestOrigin_Requested::Data            0                       # Table walker requests started/completed, data/inst
system.cpu0.itb.walker.walkRequestOrigin_Requested::Inst            0                       # Table walker requests started/completed, data/inst
system.cpu0.itb.walker.walkRequestOrigin_Requested::total            0                       # Table walker requests started/completed, data/inst
system.cpu0.itb.walker.walkRequestOrigin_Completed::Data            0                       # Table walker requests started/completed, data/inst
system.cpu0.itb.walker.walkRequestOrigin_Completed::Inst            0                       # Table walker requests started/completed, data/inst
system.cpu0.itb.walker.walkRequestOrigin_Completed::total            0                       # Table walker requests started/completed, data/inst
system.cpu0.itb.walker.walkRequestOrigin::total            0                       # Table walker requests started/completed, data/inst
system.cpu0.itb.inst_hits                           0                       # ITB inst hits
system.cpu0.itb.inst_misses                         0                       # ITB inst misses
system.cpu0.itb.read_hits                           0                       # DTB read hits
system.cpu0.itb.read_misses                         0                       # DTB read misses
system.cpu0.itb.write_hits                          0                       # DTB write hits
system.cpu0.itb.write_misses                        0                       # DTB write misses
system.cpu0.itb.flush_tlb                           0                       # Number of times complete TLB was flushed
system.cpu0.itb.flush_tlb_mva                       0                       # Number of times TLB was flushed by MVA
system.cpu0.itb.flush_tlb_mva_asid                  0                       # Number of times TLB was flushed by MVA & ASID
system.cpu0.itb.flush_tlb_asid                      0                       # Number of times TLB was flushed by ASID
system.cpu0.itb.flush_entries                       0                       # Number of entries that have been flushed from TLB
system.cpu0.itb.align_faults                        0                       # Number of TLB faults due to alignment restrictions
system.cpu0.itb.prefetch_faults                     0                       # Number of TLB faults due to prefetch
system.cpu0.itb.domain_faults                       0                       # Number of TLB faults due to domain restrictions
system.cpu0.itb.perms_faults                        0                       # Number of TLB faults due to permissions restrictions
system.cpu0.itb.read_accesses                       0                       # DTB read accesses
system.cpu0.itb.write_accesses                      0                       # DTB write accesses
system.cpu0.itb.inst_accesses                       0                       # ITB inst accesses
system.cpu0.itb.hits                                0                       # DTB hits
system.cpu0.itb.misses                              0                       # DTB misses
system.cpu0.itb.accesses                            0                       # DTB accesses
system.cpu0.workload.num_syscalls                 123                       # Number of system calls
system.cpu0.numCycles                           82546                       # number of cpu cycles simulated
system.cpu0.numWorkItemsStarted                     0                       # number of work items this cpu started
system.cpu0.numWorkItemsCompleted                   0                       # number of work items this cpu completed
system.cpu0.fetch.icacheStallCycles             20862                       # Number of cycles fetch is stalled on an Icache miss
system.cpu0.fetch.Insts                         70882                       # Number of instructions fetch has processed
system.cpu0.fetch.Branches                      11643                       # Number of branches that fetch encountered
system.cpu0.fetch.predictedBranches              6254                       # Number of branches that fetch has predicted taken
system.cpu0.fetch.Cycles                        26763                       # Number of cycles fetch has run and was not squashing or blocked
system.cpu0.fetch.SquashCycles                   2191                       # Number of cycles fetch has spent squashing
system.cpu0.fetch.MiscStallCycles                   1                       # Number of cycles fetch has spent waiting on interrupts, or bad addresses, or out of MSHRs
system.cpu0.fetch.PendingTrapStallCycles            1                       # Number of stall cycles due to pending traps
system.cpu0.fetch.CacheLines                     7968                       # Number of cache lines fetched
system.cpu0.fetch.IcacheSquashes                  617                       # Number of outstanding Icache misses that were squashed
system.cpu0.fetch.rateDist::samples             48722                       # Number of instructions fetched each cycle (Total)
system.cpu0.fetch.rateDist::mean             1.639444                       # Number of instructions fetched each cycle (Total)
system.cpu0.fetch.rateDist::stdev            2.980018                       # Number of instructions fetched each cycle (Total)
system.cpu0.fetch.rateDist::underflows              0      0.00%      0.00% # Number of instructions fetched each cycle (Total)
system.cpu0.fetch.rateDist::0                   35646     73.16%     73.16% # Number of instructions fetched each cycle (Total)
system.cpu0.fetch.rateDist::1                     858      1.76%     74.92% # Number of instructions fetched each cycle (Total)
system.cpu0.fetch.rateDist::2                    1094      2.25%     77.17% # Number of instructions fetched each cycle (Total)
system.cpu0.fetch.rateDist::3                     670      1.38%     78.54% # Number of instructions fetched each cycle (Total)
system.cpu0.fetch.rateDist::4                     879      1.80%     80.35% # Number of instructions fetched each cycle (Total)
system.cpu0.fetch.rateDist::5                     525      1.08%     81.43% # Number of instructions fetched each cycle (Total)
system.cpu0.fetch.rateDist::6                     884      1.81%     83.24% # Number of instructions fetched each cycle (Total)
system.cpu0.fetch.rateDist::7                    1952      4.01%     87.25% # Number of instructions fetched each cycle (Total)
system.cpu0.fetch.rateDist::8                    6214     12.75%    100.00% # Number of instructions fetched each cycle (Total)
system.cpu0.fetch.rateDist::overflows               0      0.00%    100.00% # Number of instructions fetched each cycle (Total)
system.cpu0.fetch.rateDist::min_value               0                       # Number of instructions fetched each cycle (Total)
system.cpu0.fetch.rateDist::max_value               8                       # Number of instructions fetched each cycle (Total)
system.cpu0.fetch.rateDist::total               48722                       # Number of instructions fetched each cycle (Total)
system.cpu0.fetch.branchRate                 0.141049                       # Number of branch fetches per cycle
system.cpu0.fetch.rate                       0.858697                       # Number of inst fetches per cycle
system.cpu0.decode.IdleCycles                   17199                       # Number of cycles decode is idle
system.cpu0.decode.BlockedCycles                19163                       # Number of cycles decode is blocked
system.cpu0.decode.RunCycles                    10659                       # Number of cycles decode is running
system.cpu0.decode.UnblockCycles                  905                       # Number of cycles decode is unblocking
system.cpu0.decode.SquashCycles                   796                       # Number of cycles decode is squashing
system.cpu0.decode.BranchResolved                 932                       # Number of times decode resolved a branch
system.cpu0.decode.BranchMispred                  310                       # Number of times decode detected a branch misprediction
system.cpu0.decode.DecodedInsts                 72883                       # Number of instructions handled by decode
system.cpu0.decode.SquashedInsts                 1119                       # Number of squashed instructions handled by decode
system.cpu0.rename.SquashCycles                   796                       # Number of cycles rename is squashing
system.cpu0.rename.IdleCycles                   18057                       # Number of cycles rename is idle
system.cpu0.rename.BlockCycles                   2573                       # Number of cycles rename is blocking
system.cpu0.rename.serializeStallCycles          7106                       # count of cycles rename stalled for serializing inst
system.cpu0.rename.RunCycles                    10655                       # Number of cycles rename is running
system.cpu0.rename.UnblockCycles                 9535                       # Number of cycles rename is unblocking
system.cpu0.rename.RenamedInsts                 70506                       # Number of instructions processed by rename
system.cpu0.rename.ROBFullEvents                   92                       # Number of times rename has blocked due to ROB full
system.cpu0.rename.IQFullEvents                   193                       # Number of times rename has blocked due to IQ full
system.cpu0.rename.LQFullEvents                   222                       # Number of times rename has blocked due to LQ full
system.cpu0.rename.SQFullEvents                  8789                       # Number of times rename has blocked due to SQ full
system.cpu0.rename.RenamedOperands              86684                       # Number of destination operands rename has renamed
system.cpu0.rename.RenameLookups               338668                       # Number of register rename lookups that rename has made
system.cpu0.rename.int_rename_lookups           96882                       # Number of integer rename lookups
system.cpu0.rename.fp_rename_lookups               22                       # Number of floating rename lookups
system.cpu0.rename.CommittedMaps                66440                       # Number of HB maps that are committed
system.cpu0.rename.UndoneMaps                   20244                       # Number of HB maps that are undone due to squashing
system.cpu0.rename.serializingInsts               134                       # count of serializing insts renamed
system.cpu0.rename.tempSerializingInsts           134                       # count of temporary serializing insts renamed
system.cpu0.rename.skidInsts                     4366                       # count of insts added to the skid buffer
system.cpu0.memDep0.insertedLoads               11597                       # Number of loads inserted to the mem dependence unit.
system.cpu0.memDep0.insertedStores               8094                       # Number of stores inserted to the mem dependence unit.
system.cpu0.memDep0.conflictingLoads              756                       # Number of conflicting loads.
system.cpu0.memDep0.conflictingStores             589                       # Number of conflicting stores.
system.cpu0.iq.iqInstsAdded                     66696                       # Number of instructions added to the IQ (excludes non-spec)
system.cpu0.iq.iqNonSpecInstsAdded                277                       # Number of non-speculative instructions added to the IQ
system.cpu0.iq.iqInstsIssued                    61055                       # Number of instructions issued
system.cpu0.iq.iqSquashedInstsIssued               77                       # Number of squashed instructions issued
system.cpu0.iq.iqSquashedInstsExamined          13832                       # Number of squashed instructions iterated over during squash; mainly for profiling
system.cpu0.iq.iqSquashedOperandsExamined        36145                       # Number of squashed operands that are examined and possibly removed from graph
system.cpu0.iq.iqSquashedNonSpecRemoved            70                       # Number of squashed non-spec instructions that were removed
system.cpu0.iq.issued_per_cycle::samples        48722                       # Number of insts issued each cycle
system.cpu0.iq.issued_per_cycle::mean        1.253130                       # Number of insts issued each cycle
system.cpu0.iq.issued_per_cycle::stdev       2.104684                       # Number of insts issued each cycle
system.cpu0.iq.issued_per_cycle::underflows            0      0.00%      0.00% # Number of insts issued each cycle
system.cpu0.iq.issued_per_cycle::0              30931     63.48%     63.48% # Number of insts issued each cycle
system.cpu0.iq.issued_per_cycle::1               4365      8.96%     72.44% # Number of insts issued each cycle
system.cpu0.iq.issued_per_cycle::2               2699      5.54%     77.98% # Number of insts issued each cycle
system.cpu0.iq.issued_per_cycle::3               3458      7.10%     85.08% # Number of insts issued each cycle
system.cpu0.iq.issued_per_cycle::4               2422      4.97%     90.05% # Number of insts issued each cycle
system.cpu0.iq.issued_per_cycle::5               1339      2.75%     92.80% # Number of insts issued each cycle
system.cpu0.iq.issued_per_cycle::6               1121      2.30%     95.10% # Number of insts issued each cycle
system.cpu0.iq.issued_per_cycle::7               1287      2.64%     97.74% # Number of insts issued each cycle
system.cpu0.iq.issued_per_cycle::8               1100      2.26%    100.00% # Number of insts issued each cycle
system.cpu0.iq.issued_per_cycle::overflows            0      0.00%    100.00% # Number of insts issued each cycle
system.cpu0.iq.issued_per_cycle::min_value            0                       # Number of insts issued each cycle
system.cpu0.iq.issued_per_cycle::max_value            8                       # Number of insts issued each cycle
system.cpu0.iq.issued_per_cycle::total          48722                       # Number of insts issued each cycle
system.cpu0.iq.fu_full::No_OpClass                  0      0.00%      0.00% # attempts to use FU when none available
system.cpu0.iq.fu_full::IntAlu                    734     36.79%     36.79% # attempts to use FU when none available
system.cpu0.iq.fu_full::IntMult                   834     41.80%     78.60% # attempts to use FU when none available
system.cpu0.iq.fu_full::IntDiv                      0      0.00%     78.60% # attempts to use FU when none available
system.cpu0.iq.fu_full::FloatAdd                    0      0.00%     78.60% # attempts to use FU when none available
system.cpu0.iq.fu_full::FloatCmp                    0      0.00%     78.60% # attempts to use FU when none available
system.cpu0.iq.fu_full::FloatCvt                    0      0.00%     78.60% # attempts to use FU when none available
system.cpu0.iq.fu_full::FloatMult                   0      0.00%     78.60% # attempts to use FU when none available
system.cpu0.iq.fu_full::FloatDiv                    0      0.00%     78.60% # attempts to use FU when none available
system.cpu0.iq.fu_full::FloatSqrt                   0      0.00%     78.60% # attempts to use FU when none available
system.cpu0.iq.fu_full::SimdAdd                     0      0.00%     78.60% # attempts to use FU when none available
system.cpu0.iq.fu_full::SimdAddAcc                  0      0.00%     78.60% # attempts to use FU when none available
system.cpu0.iq.fu_full::SimdAlu                     0      0.00%     78.60% # attempts to use FU when none available
system.cpu0.iq.fu_full::SimdCmp                     0      0.00%     78.60% # attempts to use FU when none available
system.cpu0.iq.fu_full::SimdCvt                     0      0.00%     78.60% # attempts to use FU when none available
system.cpu0.iq.fu_full::SimdMisc                    0      0.00%     78.60% # attempts to use FU when none available
system.cpu0.iq.fu_full::SimdMult                    0      0.00%     78.60% # attempts to use FU when none available
system.cpu0.iq.fu_full::SimdMultAcc                 0      0.00%     78.60% # attempts to use FU when none available
system.cpu0.iq.fu_full::SimdShift                   0      0.00%     78.60% # attempts to use FU when none available
system.cpu0.iq.fu_full::SimdShiftAcc                0      0.00%     78.60% # attempts to use FU when none available
system.cpu0.iq.fu_full::SimdSqrt                    0      0.00%     78.60% # attempts to use FU when none available
system.cpu0.iq.fu_full::SimdFloatAdd                0      0.00%     78.60% # attempts to use FU when none available
system.cpu0.iq.fu_full::SimdFloatAlu                0      0.00%     78.60% # attempts to use FU when none available
system.cpu0.iq.fu_full::SimdFloatCmp                0      0.00%     78.60% # attempts to use FU when none available
system.cpu0.iq.fu_full::SimdFloatCvt                0      0.00%     78.60% # attempts to use FU when none available
system.cpu0.iq.fu_full::SimdFloatDiv                0      0.00%     78.60% # attempts to use FU when none available
system.cpu0.iq.fu_full::SimdFloatMisc               0      0.00%     78.60% # attempts to use FU when none available
system.cpu0.iq.fu_full::SimdFloatMult               0      0.00%     78.60% # attempts to use FU when none available
system.cpu0.iq.fu_full::SimdFloatMultAcc            0      0.00%     78.60% # attempts to use FU when none available
system.cpu0.iq.fu_full::SimdFloatSqrt               0      0.00%     78.60% # attempts to use FU when none available
system.cpu0.iq.fu_full::MemRead                   207     10.38%     88.97% # attempts to use FU when none available
system.cpu0.iq.fu_full::MemWrite                  220     11.03%    100.00% # attempts to use FU when none available
system.cpu0.iq.fu_full::IprAccess                   0      0.00%    100.00% # attempts to use FU when none available
system.cpu0.iq.fu_full::InstPrefetch                0      0.00%    100.00% # attempts to use FU when none available
system.cpu0.iq.FU_type_0::No_OpClass                0      0.00%      0.00% # Type of FU issued
system.cpu0.iq.FU_type_0::IntAlu                39020     63.91%     63.91% # Type of FU issued
system.cpu0.iq.FU_type_0::IntMult                3665      6.00%     69.91% # Type of FU issued
system.cpu0.iq.FU_type_0::IntDiv                    0      0.00%     69.91% # Type of FU issued
system.cpu0.iq.FU_type_0::FloatAdd                  0      0.00%     69.91% # Type of FU issued
system.cpu0.iq.FU_type_0::FloatCmp                  0      0.00%     69.91% # Type of FU issued
system.cpu0.iq.FU_type_0::FloatCvt                  0      0.00%     69.91% # Type of FU issued
system.cpu0.iq.FU_type_0::FloatMult                 0      0.00%     69.91% # Type of FU issued
system.cpu0.iq.FU_type_0::FloatDiv                  0      0.00%     69.91% # Type of FU issued
system.cpu0.iq.FU_type_0::FloatSqrt                 0      0.00%     69.91% # Type of FU issued
system.cpu0.iq.FU_type_0::SimdAdd                   0      0.00%     69.91% # Type of FU issued
system.cpu0.iq.FU_type_0::SimdAddAcc                0      0.00%     69.91% # Type of FU issued
system.cpu0.iq.FU_type_0::SimdAlu                   0      0.00%     69.91% # Type of FU issued
system.cpu0.iq.FU_type_0::SimdCmp                   0      0.00%     69.91% # Type of FU issued
system.cpu0.iq.FU_type_0::SimdCvt                   0      0.00%     69.91% # Type of FU issued
system.cpu0.iq.FU_type_0::SimdMisc                  0      0.00%     69.91% # Type of FU issued
system.cpu0.iq.FU_type_0::SimdMult                  0      0.00%     69.91% # Type of FU issued
system.cpu0.iq.FU_type_0::SimdMultAcc               0      0.00%     69.91% # Type of FU issued
system.cpu0.iq.FU_type_0::SimdShift                 0      0.00%     69.91% # Type of FU issued
system.cpu0.iq.FU_type_0::SimdShiftAcc              0      0.00%     69.91% # Type of FU issued
system.cpu0.iq.FU_type_0::SimdSqrt                  0      0.00%     69.91% # Type of FU issued
system.cpu0.iq.FU_type_0::SimdFloatAdd              0      0.00%     69.91% # Type of FU issued
system.cpu0.iq.FU_type_0::SimdFloatAlu              0      0.00%     69.91% # Type of FU issued
system.cpu0.iq.FU_type_0::SimdFloatCmp              0      0.00%     69.91% # Type of FU issued
system.cpu0.iq.FU_type_0::SimdFloatCvt              0      0.00%     69.91% # Type of FU issued
system.cpu0.iq.FU_type_0::SimdFloatDiv              0      0.00%     69.91% # Type of FU issued
system.cpu0.iq.FU_type_0::SimdFloatMisc             3      0.00%     69.92% # Type of FU issued
system.cpu0.iq.FU_type_0::SimdFloatMult             0      0.00%     69.92% # Type of FU issued
system.cpu0.iq.FU_type_0::SimdFloatMultAcc            0      0.00%     69.92% # Type of FU issued
system.cpu0.iq.FU_type_0::SimdFloatSqrt             0      0.00%     69.92% # Type of FU issued
system.cpu0.iq.FU_type_0::MemRead               11069     18.13%     88.05% # Type of FU issued
system.cpu0.iq.FU_type_0::MemWrite               7298     11.95%    100.00% # Type of FU issued
system.cpu0.iq.FU_type_0::IprAccess                 0      0.00%    100.00% # Type of FU issued
system.cpu0.iq.FU_type_0::InstPrefetch              0      0.00%    100.00% # Type of FU issued
system.cpu0.iq.FU_type_0::total                 61055                       # Type of FU issued
system.cpu0.iq.rate                          0.739648                       # Inst issue rate
system.cpu0.iq.fu_busy_cnt                       1995                       # FU busy when requested
system.cpu0.iq.fu_busy_rate                  0.032675                       # FU busy rate (busy events/executed inst)
system.cpu0.iq.int_inst_queue_reads            172843                       # Number of integer instruction queue reads
system.cpu0.iq.int_inst_queue_writes            80839                       # Number of integer instruction queue writes
system.cpu0.iq.int_inst_queue_wakeup_accesses        58714                       # Number of integer instruction queue wakeup accesses
system.cpu0.iq.fp_inst_queue_reads                 61                       # Number of floating instruction queue reads
system.cpu0.iq.fp_inst_queue_writes                28                       # Number of floating instruction queue writes
system.cpu0.iq.fp_inst_queue_wakeup_accesses           28                       # Number of floating instruction queue wakeup accesses
system.cpu0.iq.int_alu_accesses                 63017                       # Number of integer alu accesses
system.cpu0.iq.fp_alu_accesses                     33                       # Number of floating point alu accesses
system.cpu0.iew.lsq.thread0.forwLoads             112                       # Number of loads that had data forwarded from stores
system.cpu0.iew.lsq.thread0.invAddrLoads            0                       # Number of loads ignored due to an invalid address
system.cpu0.iew.lsq.thread0.squashedLoads         3041                       # Number of loads squashed
system.cpu0.iew.lsq.thread0.ignoredResponses            3                       # Number of memory responses ignored because the instruction is squashed
system.cpu0.iew.lsq.thread0.memOrderViolation           64                       # Number of memory ordering violations
system.cpu0.iew.lsq.thread0.squashedStores         1392                       # Number of stores squashed
system.cpu0.iew.lsq.thread0.invAddrSwpfs            0                       # Number of software prefetches ignored due to an invalid address
system.cpu0.iew.lsq.thread0.blockedLoads            0                       # Number of blocked loads due to partial load-store forwarding
system.cpu0.iew.lsq.thread0.rescheduledLoads          129                       # Number of loads that were rescheduled
system.cpu0.iew.lsq.thread0.cacheBlocked           51                       # Number of times an access to memory failed due to the cache being blocked
system.cpu0.iew.iewIdleCycles                       0                       # Number of cycles IEW is idle
system.cpu0.iew.iewSquashCycles                   796                       # Number of cycles IEW is squashing
system.cpu0.iew.iewBlockCycles                   1835                       # Number of cycles IEW is blocking
system.cpu0.iew.iewUnblockCycles                  663                       # Number of cycles IEW is unblocking
system.cpu0.iew.iewDispatchedInsts              66981                       # Number of instructions dispatched to IQ
system.cpu0.iew.iewDispSquashedInsts              239                       # Number of squashed instructions skipped by dispatch
system.cpu0.iew.iewDispLoadInsts                11597                       # Number of dispatched load instructions
system.cpu0.iew.iewDispStoreInsts                8094                       # Number of dispatched store instructions
system.cpu0.iew.iewDispNonSpecInsts               126                       # Number of dispatched non-speculative instructions
system.cpu0.iew.iewIQFullEvents                    18                       # Number of times the IQ has become full, causing a stall
system.cpu0.iew.iewLSQFullEvents                  636                       # Number of times the LSQ has become full, causing a stall
system.cpu0.iew.memOrderViolationEvents            64                       # Number of memory order violations
system.cpu0.iew.predictedTakenIncorrect           249                       # Number of branches that were predicted taken incorrectly
system.cpu0.iew.predictedNotTakenIncorrect          552                       # Number of branches that were predicted not taken incorrectly
system.cpu0.iew.branchMispredicts                 801                       # Number of branch mispredicts detected at execute
system.cpu0.iew.iewExecutedInsts                60027                       # Number of executed instructions
system.cpu0.iew.iewExecLoadInsts                10695                       # Number of load instructions executed
system.cpu0.iew.iewExecSquashedInsts             1028                       # Number of squashed instructions skipped in execute
system.cpu0.iew.exec_swp                            0                       # number of swp insts executed
system.cpu0.iew.exec_nop                            8                       # number of nop insts executed
system.cpu0.iew.exec_refs                       17804                       # number of memory reference insts executed
system.cpu0.iew.exec_branches                    8055                       # Number of branches executed
system.cpu0.iew.exec_stores                      7109                       # Number of stores executed
system.cpu0.iew.exec_rate                    0.727195                       # Inst execution rate
system.cpu0.iew.wb_sent                         59037                       # cumulative count of insts sent to commit
system.cpu0.iew.wb_count                        58742                       # cumulative count of insts written-back
system.cpu0.iew.wb_producers                    37501                       # num instructions producing a value
system.cpu0.iew.wb_consumers                    72156                       # num instructions consuming a value
system.cpu0.iew.wb_penalized                        0                       # number of instrctions required to write to 'other' IQ
system.cpu0.iew.wb_rate                      0.711627                       # insts written-back per cycle
system.cpu0.iew.wb_fanout                    0.519721                       # average fanout of values written-back
system.cpu0.iew.wb_penalized_rate                   0                       # fraction of instructions written-back that wrote to 'other' IQ
system.cpu0.commit.commitSquashedInsts          13843                       # The number of squashed insts skipped by commit
system.cpu0.commit.commitNonSpecStalls            207                       # The number of times commit has been forced to stall to communicate backwards
system.cpu0.commit.branchMispredicts              726                       # The number of times a branch was mispredicted
system.cpu0.commit.committed_per_cycle::samples        46556                       # Number of insts commited each cycle
system.cpu0.commit.committed_per_cycle::mean     1.141443                       # Number of insts commited each cycle
system.cpu0.commit.committed_per_cycle::stdev     2.250023                       # Number of insts commited each cycle
system.cpu0.commit.committed_per_cycle::underflows            0      0.00%      0.00% # Number of insts commited each cycle
system.cpu0.commit.committed_per_cycle::0        31925     68.57%     68.57% # Number of insts commited each cycle
system.cpu0.commit.committed_per_cycle::1         4988     10.71%     79.29% # Number of insts commited each cycle
system.cpu0.commit.committed_per_cycle::2         2270      4.88%     84.16% # Number of insts commited each cycle
system.cpu0.commit.committed_per_cycle::3          692      1.49%     85.65% # Number of insts commited each cycle
system.cpu0.commit.committed_per_cycle::4         1309      2.81%     88.46% # Number of insts commited each cycle
system.cpu0.commit.committed_per_cycle::5         1695      3.64%     92.10% # Number of insts commited each cycle
system.cpu0.commit.committed_per_cycle::6          627      1.35%     93.45% # Number of insts commited each cycle
system.cpu0.commit.committed_per_cycle::7          336      0.72%     94.17% # Number of insts commited each cycle
system.cpu0.commit.committed_per_cycle::8         2714      5.83%    100.00% # Number of insts commited each cycle
system.cpu0.commit.committed_per_cycle::overflows            0      0.00%    100.00% # Number of insts commited each cycle
system.cpu0.commit.committed_per_cycle::min_value            0                       # Number of insts commited each cycle
system.cpu0.commit.committed_per_cycle::max_value            8                       # Number of insts commited each cycle
system.cpu0.commit.committed_per_cycle::total        46556                       # Number of insts commited each cycle
system.cpu0.commit.committedInsts               47436                       # Number of instructions committed
system.cpu0.commit.committedOps                 53141                       # Number of ops (including micro ops) committed
system.cpu0.commit.swp_count                        0                       # Number of s/w prefetches committed
system.cpu0.commit.refs                         15258                       # Number of memory references committed
system.cpu0.commit.loads                         8556                       # Number of loads committed
system.cpu0.commit.membars                        122                       # Number of memory barriers committed
system.cpu0.commit.branches                      7020                       # Number of branches committed
system.cpu0.commit.fp_insts                        28                       # Number of committed floating point instructions.
system.cpu0.commit.int_insts                    46671                       # Number of committed integer instructions.
system.cpu0.commit.function_calls                 318                       # Number of function calls committed.
system.cpu0.commit.op_class_0::No_OpClass            0      0.00%      0.00% # Class of committed instruction
system.cpu0.commit.op_class_0::IntAlu           34270     64.49%     64.49% # Class of committed instruction
system.cpu0.commit.op_class_0::IntMult           3610      6.79%     71.28% # Class of committed instruction
system.cpu0.commit.op_class_0::IntDiv               0      0.00%     71.28% # Class of committed instruction
system.cpu0.commit.op_class_0::FloatAdd             0      0.00%     71.28% # Class of committed instruction
system.cpu0.commit.op_class_0::FloatCmp             0      0.00%     71.28% # Class of committed instruction
system.cpu0.commit.op_class_0::FloatCvt             0      0.00%     71.28% # Class of committed instruction
system.cpu0.commit.op_class_0::FloatMult            0      0.00%     71.28% # Class of committed instruction
system.cpu0.commit.op_class_0::FloatDiv             0      0.00%     71.28% # Class of committed instruction
system.cpu0.commit.op_class_0::FloatSqrt            0      0.00%     71.28% # Class of committed instruction
system.cpu0.commit.op_class_0::SimdAdd              0      0.00%     71.28% # Class of committed instruction
system.cpu0.commit.op_class_0::SimdAddAcc            0      0.00%     71.28% # Class of committed instruction
system.cpu0.commit.op_class_0::SimdAlu              0      0.00%     71.28% # Class of committed instruction
system.cpu0.commit.op_class_0::SimdCmp              0      0.00%     71.28% # Class of committed instruction
system.cpu0.commit.op_class_0::SimdCvt              0      0.00%     71.28% # Class of committed instruction
system.cpu0.commit.op_class_0::SimdMisc             0      0.00%     71.28% # Class of committed instruction
system.cpu0.commit.op_class_0::SimdMult             0      0.00%     71.28% # Class of committed instruction
system.cpu0.commit.op_class_0::SimdMultAcc            0      0.00%     71.28% # Class of committed instruction
system.cpu0.commit.op_class_0::SimdShift            0      0.00%     71.28% # Class of committed instruction
system.cpu0.commit.op_class_0::SimdShiftAcc            0      0.00%     71.28% # Class of committed instruction
system.cpu0.commit.op_class_0::SimdSqrt             0      0.00%     71.28% # Class of committed instruction
[...]
system.cpu3.dcache.ReadReq_avg_mshr_miss_latency::cpu3.data 20420.304348                       # average ReadReq mshr miss latency
system.cpu3.dcache.ReadReq_avg_mshr_miss_latency::total 20420.304348                       # average ReadReq mshr miss latency
system.cpu3.dcache.WriteReq_avg_mshr_miss_latency::cpu3.data 28444.444444                       # average WriteReq mshr miss latency
system.cpu3.dcache.WriteReq_avg_mshr_miss_latency::total 28444.444444                       # average WriteReq mshr miss latency
system.cpu3.dcache.SoftPFReq_avg_mshr_miss_latency::cpu3.data 24916.666667                       # average SoftPFReq mshr miss latency
system.cpu3.dcache.SoftPFReq_avg_mshr_miss_latency::total 24916.666667                       # average SoftPFReq mshr miss latency
system.cpu3.dcache.LoadLockedReq_avg_mshr_miss_latency::cpu3.data         9500                       # average LoadLockedReq mshr miss latency
system.cpu3.dcache.LoadLockedReq_avg_mshr_miss_latency::total         9500                       # average LoadLockedReq mshr miss latency
system.cpu3.dcache.StoreCondReq_avg_mshr_miss_latency::cpu3.data        11167                       # average StoreCondReq mshr miss latency
system.cpu3.dcache.StoreCondReq_avg_mshr_miss_latency::total        11167                       # average StoreCondReq mshr miss latency
system.cpu3.dcache.demand_avg_mshr_miss_latency::cpu3.data 22080.471264                       # average overall mshr miss latency
system.cpu3.dcache.demand_avg_mshr_miss_latency::total 22080.471264                       # average overall mshr miss latency
system.cpu3.dcache.overall_avg_mshr_miss_latency::cpu3.data 22175.011111                       # average overall mshr miss latency
system.cpu3.dcache.overall_avg_mshr_miss_latency::total 22175.011111                       # average overall mshr miss latency
system.cpu3.dcache.no_allocate_misses               0                       # Number of misses that were no-allocate
system.cpu3.icache.tags.replacements                0                       # number of replacements
system.cpu3.icache.tags.tagsinuse            8.013261                       # Cycle average of tags in use
system.cpu3.icache.tags.total_refs               3063                       # Total number of references to valid blocks.
system.cpu3.icache.tags.sampled_refs               53                       # Sample count of references to valid blocks.
system.cpu3.icache.tags.avg_refs            57.792453                       # Average number of references to valid blocks.
system.cpu3.icache.tags.warmup_cycle                0                       # Cycle when the warmup percentage was hit.
system.cpu3.icache.tags.occ_blocks::cpu3.inst     8.013261                       # Average occupied blocks per requestor
system.cpu3.icache.tags.occ_percent::cpu3.inst     0.015651                       # Average percentage of cache occupancy
system.cpu3.icache.tags.occ_percent::total     0.015651                       # Average percentage of cache occupancy
system.cpu3.icache.tags.occ_task_id_blocks::1024           53                       # Occupied blocks per task id
system.cpu3.icache.tags.age_task_id_blocks_1024::0           53                       # Occupied blocks per task id
system.cpu3.icache.tags.occ_task_id_percent::1024     0.103516                       # Percentage of cache occupancy per task id
system.cpu3.icache.tags.tag_accesses             6323                       # Number of tag accesses
system.cpu3.icache.tags.data_accesses            6323                       # Number of data accesses
system.cpu3.icache.ReadReq_hits::cpu3.inst         3063                       # number of ReadReq hits
system.cpu3.icache.ReadReq_hits::total           3063                       # number of ReadReq hits
system.cpu3.icache.demand_hits::cpu3.inst         3063                       # number of demand (read+write) hits
system.cpu3.icache.demand_hits::total            3063                       # number of demand (read+write) hits
system.cpu3.icache.overall_hits::cpu3.inst         3063                       # number of overall hits
system.cpu3.icache.overall_hits::total           3063                       # number of overall hits
system.cpu3.icache.ReadReq_misses::cpu3.inst           72                       # number of ReadReq misses
system.cpu3.icache.ReadReq_misses::total           72                       # number of ReadReq misses
system.cpu3.icache.demand_misses::cpu3.inst           72                       # number of demand (read+write) misses
system.cpu3.icache.demand_misses::total            72                       # number of demand (read+write) misses
system.cpu3.icache.overall_misses::cpu3.inst           72                       # number of overall misses
system.cpu3.icache.overall_misses::total           72                       # number of overall misses
system.cpu3.icache.ReadReq_miss_latency::cpu3.inst      4201250                       # number of ReadReq miss cycles
system.cpu3.icache.ReadReq_miss_latency::total      4201250                       # number of ReadReq miss cycles
system.cpu3.icache.demand_miss_latency::cpu3.inst      4201250                       # number of demand (read+write) miss cycles
system.cpu3.icache.demand_miss_latency::total      4201250                       # number of demand (read+write) miss cycles
system.cpu3.icache.overall_miss_latency::cpu3.inst      4201250                       # number of overall miss cycles
system.cpu3.icache.overall_miss_latency::total      4201250                       # number of overall miss cycles
system.cpu3.icache.ReadReq_accesses::cpu3.inst         3135                       # number of ReadReq accesses(hits+misses)
system.cpu3.icache.ReadReq_accesses::total         3135                       # number of ReadReq accesses(hits+misses)
system.cpu3.icache.demand_accesses::cpu3.inst         3135                       # number of demand (read+write) accesses
system.cpu3.icache.demand_accesses::total         3135                       # number of demand (read+write) accesses
system.cpu3.icache.overall_accesses::cpu3.inst         3135                       # number of overall (read+write) accesses
system.cpu3.icache.overall_accesses::total         3135                       # number of overall (read+write) accesses
system.cpu3.icache.ReadReq_miss_rate::cpu3.inst     0.022967                       # miss rate for ReadReq accesses
system.cpu3.icache.ReadReq_miss_rate::total     0.022967                       # miss rate for ReadReq accesses
system.cpu3.icache.demand_miss_rate::cpu3.inst     0.022967                       # miss rate for demand accesses
system.cpu3.icache.demand_miss_rate::total     0.022967                       # miss rate for demand accesses
system.cpu3.icache.overall_miss_rate::cpu3.inst     0.022967                       # miss rate for overall accesses
system.cpu3.icache.overall_miss_rate::total     0.022967                       # miss rate for overall accesses
system.cpu3.icache.ReadReq_avg_miss_latency::cpu3.inst 58350.694444                       # average ReadReq miss latency
system.cpu3.icache.ReadReq_avg_miss_latency::total 58350.694444                       # average ReadReq miss latency
system.cpu3.icache.demand_avg_miss_latency::cpu3.inst 58350.694444                       # average overall miss latency
system.cpu3.icache.demand_avg_miss_latency::total 58350.694444                       # average overall miss latency
system.cpu3.icache.overall_avg_miss_latency::cpu3.inst 58350.694444                       # average overall miss latency
system.cpu3.icache.overall_avg_miss_latency::total 58350.694444                       # average overall miss latency
system.cpu3.icache.blocked_cycles::no_mshrs           69                       # number of cycles access was blocked
system.cpu3.icache.blocked_cycles::no_targets            0                       # number of cycles access was blocked
system.cpu3.icache.blocked::no_mshrs                1                       # number of cycles access was blocked
system.cpu3.icache.blocked::no_targets              0                       # number of cycles access was blocked
system.cpu3.icache.avg_blocked_cycles::no_mshrs           69                       # average number of cycles each access was blocked
system.cpu3.icache.avg_blocked_cycles::no_targets          nan                       # average number of cycles each access was blocked
system.cpu3.icache.fast_writes                      0                       # number of fast writes performed
system.cpu3.icache.cache_copies                     0                       # number of cache copies performed
system.cpu3.icache.ReadReq_mshr_hits::cpu3.inst           19                       # number of ReadReq MSHR hits
system.cpu3.icache.ReadReq_mshr_hits::total           19                       # number of ReadReq MSHR hits
system.cpu3.icache.demand_mshr_hits::cpu3.inst           19                       # number of demand (read+write) MSHR hits
system.cpu3.icache.demand_mshr_hits::total           19                       # number of demand (read+write) MSHR hits
system.cpu3.icache.overall_mshr_hits::cpu3.inst           19                       # number of overall MSHR hits
system.cpu3.icache.overall_mshr_hits::total           19                       # number of overall MSHR hits
system.cpu3.icache.ReadReq_mshr_misses::cpu3.inst           53                       # number of ReadReq MSHR misses
system.cpu3.icache.ReadReq_mshr_misses::total           53                       # number of ReadReq MSHR misses
system.cpu3.icache.demand_mshr_misses::cpu3.inst           53                       # number of demand (read+write) MSHR misses
system.cpu3.icache.demand_mshr_misses::total           53                       # number of demand (read+write) MSHR misses
system.cpu3.icache.overall_mshr_misses::cpu3.inst           53                       # number of overall MSHR misses
system.cpu3.icache.overall_mshr_misses::total           53                       # number of overall MSHR misses
system.cpu3.icache.ReadReq_mshr_miss_latency::cpu3.inst      3317250                       # number of ReadReq MSHR miss cycles
system.cpu3.icache.ReadReq_mshr_miss_latency::total      3317250                       # number of ReadReq MSHR miss cycles
system.cpu3.icache.demand_mshr_miss_latency::cpu3.inst      3317250                       # number of demand (read+write) MSHR miss cycles
system.cpu3.icache.demand_mshr_miss_latency::total      3317250                       # number of demand (read+write) MSHR miss cycles
system.cpu3.icache.overall_mshr_miss_latency::cpu3.inst      3317250                       # number of overall MSHR miss cycles
system.cpu3.icache.overall_mshr_miss_latency::total      3317250                       # number of overall MSHR miss cycles
system.cpu3.icache.ReadReq_mshr_miss_rate::cpu3.inst     0.016906                       # mshr miss rate for ReadReq accesses
system.cpu3.icache.ReadReq_mshr_miss_rate::total     0.016906                       # mshr miss rate for ReadReq accesses
system.cpu3.icache.demand_mshr_miss_rate::cpu3.inst     0.016906                       # mshr miss rate for demand accesses
system.cpu3.icache.demand_mshr_miss_rate::total     0.016906                       # mshr miss rate for demand accesses
system.cpu3.icache.overall_mshr_miss_rate::cpu3.inst     0.016906                       # mshr miss rate for overall accesses
system.cpu3.icache.overall_mshr_miss_rate::total     0.016906                       # mshr miss rate for overall accesses
system.cpu3.icache.ReadReq_avg_mshr_miss_latency::cpu3.inst 62589.622642                       # average ReadReq mshr miss latency
system.cpu3.icache.ReadReq_avg_mshr_miss_latency::total 62589.622642                       # average ReadReq mshr miss latency
system.cpu3.icache.demand_avg_mshr_miss_latency::cpu3.inst 62589.622642                       # average overall mshr miss latency
system.cpu3.icache.demand_avg_mshr_miss_latency::total 62589.622642                       # average overall mshr miss latency
system.cpu3.icache.overall_avg_mshr_miss_latency::cpu3.inst 62589.622642                       # average overall mshr miss latency
system.cpu3.icache.overall_avg_mshr_miss_latency::total 62589.622642                       # average overall mshr miss latency
system.cpu3.icache.no_allocate_misses               0                       # Number of misses that were no-allocate
system.membus.trans_dist::ReadReq                1151                       # Transaction distribution
system.membus.trans_dist::ReadResp               1150                       # Transaction distribution
system.membus.trans_dist::Writeback                13                       # Transaction distribution
system.membus.trans_dist::UpgradeReq               11                       # Transaction distribution
system.membus.trans_dist::SCUpgradeReq             10                       # Transaction distribution
system.membus.trans_dist::UpgradeResp              21                       # Transaction distribution
system.membus.trans_dist::ReadExReq               283                       # Transaction distribution
system.membus.trans_dist::ReadExResp              283                       # Transaction distribution
system.membus.pkt_count_system.cpu0.icache.mem_side::system.mem_ctrls.port         1191                       # Packet count per connected master and slave (bytes)
system.membus.pkt_count_system.cpu0.dcache.mem_side::system.mem_ctrls.port          830                       # Packet count per connected master and slave (bytes)
system.membus.pkt_count_system.cpu1.icache.mem_side::system.mem_ctrls.port          102                       # Packet count per connected master and slave (bytes)
system.membus.pkt_count_system.cpu1.dcache.mem_side::system.mem_ctrls.port          115                       # Packet count per connected master and slave (bytes)
system.membus.pkt_count_system.cpu2.icache.mem_side::system.mem_ctrls.port          110                       # Packet count per connected master and slave (bytes)
system.membus.pkt_count_system.cpu2.dcache.mem_side::system.mem_ctrls.port          117                       # Packet count per connected master and slave (bytes)
system.membus.pkt_count_system.cpu3.icache.mem_side::system.mem_ctrls.port          106                       # Packet count per connected master and slave (bytes)
system.membus.pkt_count_system.cpu3.dcache.mem_side::system.mem_ctrls.port          114                       # Packet count per connected master and slave (bytes)
system.membus.pkt_count::total                   2685                       # Packet count per connected master and slave (bytes)
system.membus.pkt_size_system.cpu0.icache.mem_side::system.mem_ctrls.port        38080                       # Cumulative packet size per connected master and slave (bytes)
system.membus.pkt_size_system.cpu0.dcache.mem_side::system.mem_ctrls.port        26432                       # Cumulative packet size per connected master and slave (bytes)
system.membus.pkt_size_system.cpu1.icache.mem_side::system.mem_ctrls.port         3264                       # Cumulative packet size per connected master and slave (bytes)
system.membus.pkt_size_system.cpu1.dcache.mem_side::system.mem_ctrls.port         1152                       # Cumulative packet size per connected master and slave (bytes)
system.membus.pkt_size_system.cpu2.icache.mem_side::system.mem_ctrls.port         3520                       # Cumulative packet size per connected master and slave (bytes)
system.membus.pkt_size_system.cpu2.dcache.mem_side::system.mem_ctrls.port         1216                       # Cumulative packet size per connected master and slave (bytes)
system.membus.pkt_size_system.cpu3.icache.mem_side::system.mem_ctrls.port         3392                       # Cumulative packet size per connected master and slave (bytes)
system.membus.pkt_size_system.cpu3.dcache.mem_side::system.mem_ctrls.port         1152                       # Cumulative packet size per connected master and slave (bytes)
system.membus.pkt_size::total                   78208                       # Cumulative packet size per connected master and slave (bytes)
system.membus.snoops                              237                       # Total snoops (count)
system.membus.snoop_fanout::samples              1468                       # Request fanout histogram
system.membus.snoop_fanout::mean                    7                       # Request fanout histogram
system.membus.snoop_fanout::stdev                   0                       # Request fanout histogram
system.membus.snoop_fanout::underflows              0      0.00%      0.00% # Request fanout histogram
system.membus.snoop_fanout::0                       0      0.00%      0.00% # Request fanout histogram
system.membus.snoop_fanout::1                       0      0.00%      0.00% # Request fanout histogram
system.membus.snoop_fanout::2                       0      0.00%      0.00% # Request fanout histogram
system.membus.snoop_fanout::3                       0      0.00%      0.00% # Request fanout histogram
system.membus.snoop_fanout::4                       0      0.00%      0.00% # Request fanout histogram
system.membus.snoop_fanout::5                       0      0.00%      0.00% # Request fanout histogram
system.membus.snoop_fanout::6                       0      0.00%      0.00% # Request fanout histogram
system.membus.snoop_fanout::7                    1468    100.00%    100.00% # Request fanout histogram
system.membus.snoop_fanout::8                       0      0.00%    100.00% # Request fanout histogram
system.membus.snoop_fanout::overflows               0      0.00%    100.00% # Request fanout histogram
system.membus.snoop_fanout::min_value               7                       # Request fanout histogram
system.membus.snoop_fanout::max_value               7                       # Request fanout histogram
system.membus.snoop_fanout::total                1468                       # Request fanout histogram
system.membus.reqLayer0.occupancy             1851498                       # Layer occupancy (ticks)
system.membus.reqLayer0.utilization               4.5                       # Layer utilization (%)
system.membus.respLayer1.occupancy            3160750                       # Layer occupancy (ticks)
system.membus.respLayer1.utilization              7.7                       # Layer utilization (%)
system.membus.respLayer2.occupancy            2170494                       # Layer occupancy (ticks)
system.membus.respLayer2.utilization              5.3                       # Layer utilization (%)
system.membus.respLayer5.occupancy             272999                       # Layer occupancy (ticks)
system.membus.respLayer5.utilization              0.7                       # Layer utilization (%)
system.membus.respLayer6.occupancy             483993                       # Layer occupancy (ticks)
system.membus.respLayer6.utilization              1.2                       # Layer utilization (%)
system.membus.respLayer9.occupancy             293749                       # Layer occupancy (ticks)
system.membus.respLayer9.utilization              0.7                       # Layer utilization (%)
system.membus.respLayer10.occupancy            486243                       # Layer occupancy (ticks)
system.membus.respLayer10.utilization             1.2                       # Layer utilization (%)
system.membus.respLayer13.occupancy            281750                       # Layer occupancy (ticks)
system.membus.respLayer13.utilization             0.7                       # Layer utilization (%)
system.membus.respLayer14.occupancy            461248                       # Layer occupancy (ticks)
system.membus.respLayer14.utilization             1.1                       # Layer utilization (%)

---------- End Simulation Statistics   ----------
