
---------- Begin Simulation Statistics ----------
sim_seconds                                  0.000050                       # Number of seconds simulated
sim_ticks                                    50043500                       # Number of ticks simulated
final_tick                                   50043500                       # Number of ticks from beginning of simulation (restored from checkpoints and never reset)
sim_freq                                 1000000000000                       # Frequency of simulated ticks
host_inst_rate                                 213016                       # Simulator instruction rate (inst/s)
host_op_rate                                   221065                       # Simulator op (including micro ops) rate (op/s)
host_tick_rate                                6562766                       # Simulator tick rate (ticks/s)
host_mem_usage                                 883984                       # Number of bytes of host memory used
host_seconds                                     7.63                       # Real time elapsed on the host
sim_insts                                     1624316                       # Number of instructions simulated
sim_ops                                       1685695                       # Number of ops (including micro ops) simulated
system.voltage_domain.voltage                       1                       # Voltage in Volts
system.clk_domain.clock                          1000                       # Clock period in ticks
system.mem_ctrls.bytes_read::cpu00.inst         38464                       # Number of bytes read from this memory
system.mem_ctrls.bytes_read::cpu00.data         25472                       # Number of bytes read from this memory
system.mem_ctrls.bytes_read::cpu01.inst          3456                       # Number of bytes read from this memory
system.mem_ctrls.bytes_read::cpu01.data          1088                       # Number of bytes read from this memory
system.mem_ctrls.bytes_read::cpu02.inst          3392                       # Number of bytes read from this memory
system.mem_ctrls.bytes_read::cpu02.data          1088                       # Number of bytes read from this memory
system.mem_ctrls.bytes_read::cpu03.inst          3264                       # Number of bytes read from this memory
system.mem_ctrls.bytes_read::cpu03.data          1024                       # Number of bytes read from this memory
system.mem_ctrls.bytes_read::cpu04.inst          3328                       # Number of bytes read from this memory
system.mem_ctrls.bytes_read::cpu04.data          1088                       # Number of bytes read from this memory
system.mem_ctrls.bytes_read::cpu05.inst          3328                       # Number of bytes read from this memory
system.mem_ctrls.bytes_read::cpu05.data          1024                       # Number of bytes read from this memory
system.mem_ctrls.bytes_read::cpu06.inst          3328                       # Number of bytes read from this memory
system.mem_ctrls.bytes_read::cpu06.data          1088                       # Number of bytes read from this memory
system.mem_ctrls.bytes_read::cpu07.inst          3392                       # Number of bytes read from this memory
system.mem_ctrls.bytes_read::cpu07.data          1024                       # Number of bytes read from this memory
system.mem_ctrls.bytes_read::cpu08.inst          3392                       # Number of bytes read from this memory
system.mem_ctrls.bytes_read::cpu08.data          1088                       # Number of bytes read from this memory
system.mem_ctrls.bytes_read::cpu09.inst          3328                       # Number of bytes read from this memory
system.mem_ctrls.bytes_read::cpu09.data          1024                       # Number of bytes read from this memory
system.mem_ctrls.bytes_read::cpu10.inst          3392                       # Number of bytes read from this memory
system.mem_ctrls.bytes_read::cpu10.data          1088                       # Number of bytes read from this memory
system.mem_ctrls.bytes_read::cpu11.inst          3328                       # Number of bytes read from this memory
system.mem_ctrls.bytes_read::cpu11.data          1088                       # Number of bytes read from this memory
system.mem_ctrls.bytes_read::cpu12.inst          3328                       # Number of bytes read from this memory
system.mem_ctrls.bytes_read::cpu12.data          1216                       # Number of bytes read from this memory
system.mem_ctrls.bytes_read::cpu13.inst          3392                       # Number of bytes read from this memory
system.mem_ctrls.bytes_read::cpu13.data          1088                       # Number of bytes read from this memory
system.mem_ctrls.bytes_read::cpu14.inst          3520                       # Number of bytes read from this memory
system.mem_ctrls.bytes_read::cpu14.data          1088                       # Number of bytes read from this memory
system.mem_ctrls.bytes_read::cpu15.inst          3264                       # Number of bytes read from this memory
system.mem_ctrls.bytes_read::cpu15.data          1024                       # Number of bytes read from this memory
system.mem_ctrls.bytes_read::cpu16.inst          3328                       # Number of bytes read from this memory
system.mem_ctrls.bytes_read::cpu16.data          1088                       # Number of bytes read from this memory
system.mem_ctrls.bytes_read::cpu17.inst          3392                       # Number of bytes read from this memory
system.mem_ctrls.bytes_read::cpu17.data          1024                       # Number of bytes read from this memory
system.mem_ctrls.bytes_read::cpu18.inst          3456                       # Number of bytes read from this memory
system.mem_ctrls.bytes_read::cpu18.data          1088                       # Number of bytes read from this memory
system.mem_ctrls.bytes_read::cpu19.inst          3392                       # Number of bytes read from this memory
system.mem_ctrls.bytes_read::cpu19.data          1088                       # Number of bytes read from this memory
system.mem_ctrls.bytes_read::cpu20.inst          3520                       # Number of bytes read from this memory
system.mem_ctrls.bytes_read::cpu20.data          1088                       # Number of bytes read from this memory
system.mem_ctrls.bytes_read::cpu21.inst          3328                       # Number of bytes read from this memory
system.mem_ctrls.bytes_read::cpu21.data          1088                       # Number of bytes read from this memory
system.mem_ctrls.bytes_read::cpu22.inst          3136                       # Number of bytes read from this memory
system.mem_ctrls.bytes_read::cpu22.data          1024                       # Number of bytes read from this memory
system.mem_ctrls.bytes_read::cpu23.inst          3456                       # Number of bytes read from this memory
system.mem_ctrls.bytes_read::cpu23.data          1088                       # Number of bytes read from this memory
system.mem_ctrls.bytes_read::cpu24.inst          3520                       # Number of bytes read from this memory
system.mem_ctrls.bytes_read::cpu24.data          1088                       # Number of bytes read from this memory
system.mem_ctrls.bytes_read::cpu25.inst          3392                       # Number of bytes read from this memory
system.mem_ctrls.bytes_read::cpu25.data          1024                       # Number of bytes read from this memory
system.mem_ctrls.bytes_read::cpu26.inst          3456                       # Number of bytes read from this memory
system.mem_ctrls.bytes_read::cpu26.data          1088                       # Number of bytes read from this memory
system.mem_ctrls.bytes_read::cpu27.inst          3392                       # Number of bytes read from this memory
system.mem_ctrls.bytes_read::cpu27.data          1024                       # Number of bytes read from this memory
system.mem_ctrls.bytes_read::cpu28.inst          3520                       # Number of bytes read from this memory
system.mem_ctrls.bytes_read::cpu28.data          1088                       # Number of bytes read from this memory
system.mem_ctrls.bytes_read::cpu29.inst          3456                       # Number of bytes read from this memory
system.mem_ctrls.bytes_read::cpu29.data          1024                       # Number of bytes read from this memory
system.mem_ctrls.bytes_read::cpu30.inst          3520                       # Number of bytes read from this memory
system.mem_ctrls.bytes_read::cpu30.data          1024                       # Number of bytes read from this memory
system.mem_ctrls.bytes_read::cpu31.inst          3392                       # Number of bytes read from this memory
system.mem_ctrls.bytes_read::cpu31.data          1088                       # Number of bytes read from this memory
system.mem_ctrls.bytes_read::total             202176                       # Number of bytes read from this memory
system.mem_ctrls.bytes_inst_read::cpu00.inst        38464                       # Number of instructions bytes read from this memory
system.mem_ctrls.bytes_inst_read::cpu01.inst         3456                       # Number of instructions bytes read from this memory
system.mem_ctrls.bytes_inst_read::cpu02.inst         3392                       # Number of instructions bytes read from this memory
system.mem_ctrls.bytes_inst_read::cpu03.inst         3264                       # Number of instructions bytes read from this memory
system.mem_ctrls.bytes_inst_read::cpu04.inst         3328                       # Number of instructions bytes read from this memory
system.mem_ctrls.bytes_inst_read::cpu05.inst         3328                       # Number of instructions bytes read from this memory
system.mem_ctrls.bytes_inst_read::cpu06.inst         3328                       # Number of instructions bytes read from this memory
system.mem_ctrls.bytes_inst_read::cpu07.inst         3392                       # Number of instructions bytes read from this memory
system.mem_ctrls.bytes_inst_read::cpu08.inst         3392                       # Number of instructions bytes read from this memory
system.mem_ctrls.bytes_inst_read::cpu09.inst         3328                       # Number of instructions bytes read from this memory
system.mem_ctrls.bytes_inst_read::cpu10.inst         3392                       # Number of instructions bytes read from this memory
system.mem_ctrls.bytes_inst_read::cpu11.inst         3328                       # Number of instructions bytes read from this memory
system.mem_ctrls.bytes_inst_read::cpu12.inst         3328                       # Number of instructions bytes read from this memory
system.mem_ctrls.bytes_inst_read::cpu13.inst         3392                       # Number of instructions bytes read from this memory
system.mem_ctrls.bytes_inst_read::cpu14.inst         3520                       # Number of instructions bytes read from this memory
system.mem_ctrls.bytes_inst_read::cpu15.inst         3264                       # Number of instructions bytes read from this memory
system.mem_ctrls.bytes_inst_read::cpu16.inst         3328                       # Number of instructions bytes read from this memory
system.mem_ctrls.bytes_inst_read::cpu17.inst         3392                       # Number of instructions bytes read from this memory
system.mem_ctrls.bytes_inst_read::cpu18.inst         3456                       # Number of instructions bytes read from this memory
system.mem_ctrls.bytes_inst_read::cpu19.inst         3392                       # Number of instructions bytes read from this memory
system.mem_ctrls.bytes_inst_read::cpu20.inst         3520                       # Number of instructions bytes read from this memory
system.mem_ctrls.bytes_inst_read::cpu21.inst         3328                       # Number of instructions bytes read from this memory
system.mem_ctrls.bytes_inst_read::cpu22.inst         3136                       # Number of instructions bytes read from this memory
system.mem_ctrls.bytes_inst_read::cpu23.inst         3456                       # Number of instructions bytes read from this memory
system.mem_ctrls.bytes_inst_read::cpu24.inst         3520                       # Number of instructions bytes read from this memory
system.mem_ctrls.bytes_inst_read::cpu25.inst         3392                       # Number of instructions bytes read from this memory
system.mem_ctrls.bytes_inst_read::cpu26.inst         3456                       # Number of instructions bytes read from this memory
system.mem_ctrls.bytes_inst_read::cpu27.inst         3392                       # Number of instructions bytes read from this memory
system.mem_ctrls.bytes_inst_read::cpu28.inst         3520                       # Number of instructions bytes read from this memory
system.mem_ctrls.bytes_inst_read::cpu29.inst         3456                       # Number of instructions bytes read from this memory
system.mem_ctrls.bytes_inst_read::cpu30.inst         3520                       # Number of instructions bytes read from this memory
system.mem_ctrls.bytes_inst_read::cpu31.inst         3392                       # Number of instructions bytes read from this memory
system.mem_ctrls.bytes_inst_read::total        143552                       # Number of instructions bytes read from this memory
system.mem_ctrls.bytes_written::writebacks         2112                       # Number of bytes written to this memory
system.mem_ctrls.bytes_written::total            2112                       # Number of bytes written to this memory
system.mem_ctrls.num_reads::cpu00.inst            601                       # Number of read requests responded to by this memory
system.mem_ctrls.num_reads::cpu00.data            398                       # Number of read requests responded to by this memory
system.mem_ctrls.num_reads::cpu01.inst             54                       # Number of read requests responded to by this memory
system.mem_ctrls.num_reads::cpu01.data             17                       # Number of read requests responded to by this memory
system.mem_ctrls.num_reads::cpu02.inst             53                       # Number of read requests responded to by this memory
system.mem_ctrls.num_reads::cpu02.data             17                       # Number of read requests responded to by this memory
system.mem_ctrls.num_reads::cpu03.inst             51                       # Number of read requests responded to by this memory
system.mem_ctrls.num_reads::cpu03.data             16                       # Number of read requests responded to by this memory
system.mem_ctrls.num_reads::cpu04.inst             52                       # Number of read requests responded to by this memory
system.mem_ctrls.num_reads::cpu04.data             17                       # Number of read requests responded to by this memory
system.mem_ctrls.num_reads::cpu05.inst             52                       # Number of read requests responded to by this memory
system.mem_ctrls.num_reads::cpu05.data             16                       # Number of read requests responded to by this memory
system.mem_ctrls.num_reads::cpu06.inst             52                       # Number of read requests responded to by this memory
system.mem_ctrls.num_reads::cpu06.data             17                       # Number of read requests responded to by this memory
system.mem_ctrls.num_reads::cpu07.inst             53                       # Number of read requests responded to by this memory
system.mem_ctrls.num_reads::cpu07.data             16                       # Number of read requests responded to by this memory
system.mem_ctrls.num_reads::cpu08.inst             53                       # Number of read requests responded to by this memory
system.mem_ctrls.num_reads::cpu08.data             17                       # Number of read requests responded to by this memory
system.mem_ctrls.num_reads::cpu09.inst             52                       # Number of read requests responded to by this memory
system.mem_ctrls.num_reads::cpu09.data             16                       # Number of read requests responded to by this memory
system.mem_ctrls.num_reads::cpu10.inst             53                       # Number of read requests responded to by this memory
system.mem_ctrls.num_reads::cpu10.data             17                       # Number of read requests responded to by this memory
system.mem_ctrls.num_reads::cpu11.inst             52                       # Number of read requests responded to by this memory
system.mem_ctrls.num_reads::cpu11.data             17                       # Number of read requests responded to by this memory
system.mem_ctrls.num_reads::cpu12.inst             52                       # Number of read requests responded to by this memory
system.mem_ctrls.num_reads::cpu12.data             19                       # Number of read requests responded to by this memory
system.mem_ctrls.num_reads::cpu13.inst             53                       # Number of read requests responded to by this memory
system.mem_ctrls.num_reads::cpu13.data             17                       # Number of read requests responded to by this memory
system.mem_ctrls.num_reads::cpu14.inst             55                       # Number of read requests responded to by this memory
system.mem_ctrls.num_reads::cpu14.data             17                       # Number of read requests responded to by this memory
system.mem_ctrls.num_reads::cpu15.inst             51                       # Number of read requests responded to by this memory
system.mem_ctrls.num_reads::cpu15.data             16                       # Number of read requests responded to by this memory
system.mem_ctrls.num_reads::cpu16.inst             52                       # Number of read requests responded to by this memory
system.mem_ctrls.num_reads::cpu16.data             17                       # Number of read requests responded to by this memory
system.mem_ctrls.num_reads::cpu17.inst             53                       # Number of read requests responded to by this memory
system.mem_ctrls.num_reads::cpu17.data             16                       # Number of read requests responded to by this memory
system.mem_ctrls.num_reads::cpu18.inst             54                       # Number of read requests responded to by this memory
system.mem_ctrls.num_reads::cpu18.data             17                       # Number of read requests responded to by this memory
system.mem_ctrls.num_reads::cpu19.inst             53                       # Number of read requests responded to by this memory
system.mem_ctrls.num_reads::cpu19.data             17                       # Number of read requests responded to by this memory
system.mem_ctrls.num_reads::cpu20.inst             55                       # Number of read requests responded to by this memory
system.mem_ctrls.num_reads::cpu20.data             17                       # Number of read requests responded to by this memory
system.mem_ctrls.num_reads::cpu21.inst             52                       # Number of read requests responded to by this memory
system.mem_ctrls.num_reads::cpu21.data             17                       # Number of read requests responded to by this memory
system.mem_ctrls.num_reads::cpu22.inst             49                       # Number of read requests responded to by this memory
system.mem_ctrls.num_reads::cpu22.data             16                       # Number of read requests responded to by this memory
system.mem_ctrls.num_reads::cpu23.inst             54                       # Number of read requests responded to by this memory
system.mem_ctrls.num_reads::cpu23.data             17                       # Number of read requests responded to by this memory
system.mem_ctrls.num_reads::cpu24.inst             55                       # Number of read requests responded to by this memory
system.mem_ctrls.num_reads::cpu24.data             17                       # Number of read requests responded to by this memory
system.mem_ctrls.num_reads::cpu25.inst             53                       # Number of read requests responded to by this memory
system.mem_ctrls.num_reads::cpu25.data             16                       # Number of read requests responded to by this memory
system.mem_ctrls.num_reads::cpu26.inst             54                       # Number of read requests responded to by this memory
system.mem_ctrls.num_reads::cpu26.data             17                       # Number of read requests responded to by this memory
system.mem_ctrls.num_reads::cpu27.inst             53                       # Number of read requests responded to by this memory
system.mem_ctrls.num_reads::cpu27.data             16                       # Number of read requests responded to by this memory
system.mem_ctrls.num_reads::cpu28.inst             55                       # Number of read requests responded to by this memory
system.mem_ctrls.num_reads::cpu28.data             17                       # Number of read requests responded to by this memory
system.mem_ctrls.num_reads::cpu29.inst             54                       # Number of read requests responded to by this memory
system.mem_ctrls.num_reads::cpu29.data             16                       # Number of read requests responded to by this memory
system.mem_ctrls.num_reads::cpu30.inst             55                       # Number of read requests responded to by this memory
system.mem_ctrls.num_reads::cpu30.data             16                       # Number of read requests responded to by this memory
system.mem_ctrls.num_reads::cpu31.inst             53                       # Number of read requests responded to by this memory
system.mem_ctrls.num_reads::cpu31.data             17                       # Number of read requests responded to by this memory
system.mem_ctrls.num_reads::total                3159                       # Number of read requests responded to by this memory
system.mem_ctrls.num_writes::writebacks            33                       # Number of write requests responded to by this memory
system.mem_ctrls.num_writes::total                 33                       # Number of write requests responded to by this memory
system.mem_ctrls.bw_read::cpu00.inst        768611308                       # Total read bandwidth from this memory (bytes/s)
system.mem_ctrls.bw_read::cpu00.data        508997172                       # Total read bandwidth from this memory (bytes/s)
system.mem_ctrls.bw_read::cpu01.inst         69059918                       # Total read bandwidth from this memory (bytes/s)
system.mem_ctrls.bw_read::cpu01.data         21741085                       # Total read bandwidth from this memory (bytes/s)
system.mem_ctrls.bw_read::cpu02.inst         67781031                       # Total read bandwidth from this memory (bytes/s)
system.mem_ctrls.bw_read::cpu02.data         21741085                       # Total read bandwidth from this memory (bytes/s)
system.mem_ctrls.bw_read::cpu03.inst         65223256                       # Total read bandwidth from this memory (bytes/s)
system.mem_ctrls.bw_read::cpu03.data         20462198                       # Total read bandwidth from this memory (bytes/s)
system.mem_ctrls.bw_read::cpu04.inst         66502143                       # Total read bandwidth from this memory (bytes/s)
system.mem_ctrls.bw_read::cpu04.data         21741085                       # Total read bandwidth from this memory (bytes/s)
system.mem_ctrls.bw_read::cpu05.inst         66502143                       # Total read bandwidth from this memory (bytes/s)
system.mem_ctrls.bw_read::cpu05.data         20462198                       # Total read bandwidth from this memory (bytes/s)
system.mem_ctrls.bw_read::cpu06.inst         66502143                       # Total read bandwidth from this memory (bytes/s)
system.mem_ctrls.bw_read::cpu06.data         21741085                       # Total read bandwidth from this memory (bytes/s)
system.mem_ctrls.bw_read::cpu07.inst         67781031                       # Total read bandwidth from this memory (bytes/s)
system.mem_ctrls.bw_read::cpu07.data         20462198                       # Total read bandwidth from this memory (bytes/s)
system.mem_ctrls.bw_read::cpu08.inst         67781031                       # Total read bandwidth from this memory (bytes/s)
system.mem_ctrls.bw_read::cpu08.data         21741085                       # Total read bandwidth from this memory (bytes/s)
system.mem_ctrls.bw_read::cpu09.inst         66502143                       # Total read bandwidth from this memory (bytes/s)
system.mem_ctrls.bw_read::cpu09.data         20462198                       # Total read bandwidth from this memory (bytes/s)
system.mem_ctrls.bw_read::cpu10.inst         67781031                       # Total read bandwidth from this memory (bytes/s)
system.mem_ctrls.bw_read::cpu10.data         21741085                       # Total read bandwidth from this memory (bytes/s)
system.mem_ctrls.bw_read::cpu11.inst         66502143                       # Total read bandwidth from this memory (bytes/s)
system.mem_ctrls.bw_read::cpu11.data         21741085                       # Total read bandwidth from this memory (bytes/s)
system.mem_ctrls.bw_read::cpu12.inst         66502143                       # Total read bandwidth from this memory (bytes/s)
system.mem_ctrls.bw_read::cpu12.data         24298860                       # Total read bandwidth from this memory (bytes/s)
system.mem_ctrls.bw_read::cpu13.inst         67781031                       # Total read bandwidth from this memory (bytes/s)
system.mem_ctrls.bw_read::cpu13.data         21741085                       # Total read bandwidth from this memory (bytes/s)
system.mem_ctrls.bw_read::cpu14.inst         70338805                       # Total read bandwidth from this memory (bytes/s)
system.mem_ctrls.bw_read::cpu14.data         21741085                       # Total read bandwidth from this memory (bytes/s)
system.mem_ctrls.bw_read::cpu15.inst         65223256                       # Total read bandwidth from this memory (bytes/s)
system.mem_ctrls.bw_read::cpu15.data         20462198                       # Total read bandwidth from this memory (bytes/s)
system.mem_ctrls.bw_read::cpu16.inst         66502143                       # Total read bandwidth from this memory (bytes/s)
system.mem_ctrls.bw_read::cpu16.data         21741085                       # Total read bandwidth from this memory (bytes/s)
system.mem_ctrls.bw_read::cpu17.inst         67781031                       # Total read bandwidth from this memory (bytes/s)
system.mem_ctrls.bw_read::cpu17.data         20462198                       # Total read bandwidth from this memory (bytes/s)
system.mem_ctrls.bw_read::cpu18.inst         69059918                       # Total read bandwidth from this memory (bytes/s)
system.mem_ctrls.bw_read::cpu18.data         21741085                       # Total read bandwidth from this memory (bytes/s)
system.mem_ctrls.bw_read::cpu19.inst         67781031                       # Total read bandwidth from this memory (bytes/s)
system.mem_ctrls.bw_read::cpu19.data         21741085                       # Total read bandwidth from this memory (bytes/s)
system.mem_ctrls.bw_read::cpu20.inst         70338805                       # Total read bandwidth from this memory (bytes/s)
system.mem_ctrls.bw_read::cpu20.data         21741085                       # Total read bandwidth from this memory (bytes/s)
system.mem_ctrls.bw_read::cpu21.inst         66502143                       # Total read bandwidth from this memory (bytes/s)
system.mem_ctrls.bw_read::cpu21.data         21741085                       # Total read bandwidth from this memory (bytes/s)
system.mem_ctrls.bw_read::cpu22.inst         62665481                       # Total read bandwidth from this memory (bytes/s)
system.mem_ctrls.bw_read::cpu22.data         20462198                       # Total read bandwidth from this memory (bytes/s)
system.mem_ctrls.bw_read::cpu23.inst         69059918                       # Total read bandwidth from this memory (bytes/s)
system.mem_ctrls.bw_read::cpu23.data         21741085                       # Total read bandwidth from this memory (bytes/s)
system.mem_ctrls.bw_read::cpu24.inst         70338805                       # Total read bandwidth from this memory (bytes/s)
system.mem_ctrls.bw_read::cpu24.data         21741085                       # Total read bandwidth from this memory (bytes/s)
system.mem_ctrls.bw_read::cpu25.inst         67781031                       # Total read bandwidth from this memory (bytes/s)
system.mem_ctrls.bw_read::cpu25.data         20462198                       # Total read bandwidth from this memory (bytes/s)
system.mem_ctrls.bw_read::cpu26.inst         69059918                       # Total read bandwidth from this memory (bytes/s)
system.mem_ctrls.bw_read::cpu26.data         21741085                       # Total read bandwidth from this memory (bytes/s)
system.mem_ctrls.bw_read::cpu27.inst         67781031                       # Total read bandwidth from this memory (bytes/s)
system.mem_ctrls.bw_read::cpu27.data         20462198                       # Total read bandwidth from this memory (bytes/s)
system.mem_ctrls.bw_read::cpu28.inst         70338805                       # Total read bandwidth from this memory (bytes/s)
system.mem_ctrls.bw_read::cpu28.data         21741085                       # Total read bandwidth from this memory (bytes/s)
system.mem_ctrls.bw_read::cpu29.inst         69059918                       # Total read bandwidth from this memory (bytes/s)
system.mem_ctrls.bw_read::cpu29.data         20462198                       # Total read bandwidth from this memory (bytes/s)
system.mem_ctrls.bw_read::cpu30.inst         70338805                       # Total read bandwidth from this memory (bytes/s)
system.mem_ctrls.bw_read::cpu30.data         20462198                       # Total read bandwidth from this memory (bytes/s)
system.mem_ctrls.bw_read::cpu31.inst         67781031                       # Total read bandwidth from this memory (bytes/s)
system.mem_ctrls.bw_read::cpu31.data         21741085                       # Total read bandwidth from this memory (bytes/s)
system.mem_ctrls.bw_read::total            4040005195                       # Total read bandwidth from this memory (bytes/s)
system.mem_ctrls.bw_inst_read::cpu00.inst    768611308                       # Instruction read bandwidth from this memory (bytes/s)
system.mem_ctrls.bw_inst_read::cpu01.inst     69059918                       # Instruction read bandwidth from this memory (bytes/s)
system.mem_ctrls.bw_inst_read::cpu02.inst     67781031                       # Instruction read bandwidth from this memory (bytes/s)
system.mem_ctrls.bw_inst_read::cpu03.inst     65223256                       # Instruction read bandwidth from this memory (bytes/s)
system.mem_ctrls.bw_inst_read::cpu04.inst     66502143                       # Instruction read bandwidth from this memory (bytes/s)
system.mem_ctrls.bw_inst_read::cpu05.inst     66502143                       # Instruction read bandwidth from this memory (bytes/s)
system.mem_ctrls.bw_inst_read::cpu06.inst     66502143                       # Instruction read bandwidth from this memory (bytes/s)
system.mem_ctrls.bw_inst_read::cpu07.inst     67781031                       # Instruction read bandwidth from this memory (bytes/s)
system.mem_ctrls.bw_inst_read::cpu08.inst     67781031                       # Instruction read bandwidth from this memory (bytes/s)
system.mem_ctrls.bw_inst_read::cpu09.inst     66502143                       # Instruction read bandwidth from this memory (bytes/s)
system.mem_ctrls.bw_inst_read::cpu10.inst     67781031                       # Instruction read bandwidth from this memory (bytes/s)
system.mem_ctrls.bw_inst_read::cpu11.inst     66502143                       # Instruction read bandwidth from this memory (bytes/s)
system.mem_ctrls.bw_inst_read::cpu12.inst     66502143                       # Instruction read bandwidth from this memory (bytes/s)
system.mem_ctrls.bw_inst_read::cpu13.inst     67781031                       # Instruction read bandwidth from this memory (bytes/s)
system.mem_ctrls.bw_inst_read::cpu14.inst     70338805                       # Instruction read bandwidth from this memory (bytes/s)
system.mem_ctrls.bw_inst_read::cpu15.inst     65223256                       # Instruction read bandwidth from this memory (bytes/s)
system.mem_ctrls.bw_inst_read::cpu16.inst     66502143                       # Instruction read bandwidth from this memory (bytes/s)
system.mem_ctrls.bw_inst_read::cpu17.inst     67781031                       # Instruction read bandwidth from this memory (bytes/s)
system.mem_ctrls.bw_inst_read::cpu18.inst     69059918                       # Instruction read bandwidth from this memory (bytes/s)
system.mem_ctrls.bw_inst_read::cpu19.inst     67781031                       # Instruction read bandwidth from this memory (bytes/s)
system.mem_ctrls.bw_inst_read::cpu20.inst     70338805                       # Instruction read bandwidth from this memory (bytes/s)
system.mem_ctrls.bw_inst_read::cpu21.inst     66502143                       # Instruction read bandwidth from this memory (bytes/s)
system.mem_ctrls.bw_inst_read::cpu22.inst     62665481                       # Instruction read bandwidth from this memory (bytes/s)
system.mem_ctrls.bw_inst_read::cpu23.inst     69059918                       # Instruction read bandwidth from this memory (bytes/s)
system.mem_ctrls.bw_inst_read::cpu24.inst     70338805                       # Instruction read bandwidth from this memory (bytes/s)
system.mem_ctrls.bw_inst_read::cpu25.inst     67781031                       # Instruction read bandwidth from this memory (bytes/s)
system.mem_ctrls.bw_inst_read::cpu26.inst     69059918                       # Instruction read bandwidth from this memory (bytes/s)
system.mem_ctrls.bw_inst_read::cpu27.inst     67781031                       # Instruction read bandwidth from this memory (bytes/s)
system.mem_ctrls.bw_inst_read::cpu28.inst     70338805                       # Instruction read bandwidth from this memory (bytes/s)
system.mem_ctrls.bw_inst_read::cpu29.inst     69059918                       # Instruction read bandwidth from this memory (bytes/s)
system.mem_ctrls.bw_inst_read::cpu30.inst     70338805                       # Instruction read bandwidth from this memory (bytes/s)
system.mem_ctrls.bw_inst_read::cpu31.inst     67781031                       # Instruction read bandwidth from this memory (bytes/s)
system.mem_ctrls.bw_inst_read::total       2868544366                       # Instruction read bandwidth from this memory (bytes/s)
system.mem_ctrls.bw_write::writebacks        42203283                       # Write bandwidth from this memory (bytes/s)
system.mem_ctrls.bw_write::total             42203283                       # Write bandwidth from this memory (bytes/s)
system.mem_ctrls.bw_total::writebacks        42203283                       # Total bandwidth to/from this memory (bytes/s)
system.mem_ctrls.bw_total::cpu00.inst       768611308                       # Total bandwidth to/from this memory (bytes/s)
system.mem_ctrls.bw_total::cpu00.data       508997172                       # Total bandwidth to/from this memory (bytes/s)
system.mem_ctrls.bw_total::cpu01.inst        69059918                       # Total bandwidth to/from this memory (bytes/s)
system.mem_ctrls.bw_total::cpu01.data        21741085                       # Total bandwidth to/from this memory (bytes/s)
system.mem_ctrls.bw_total::cpu02.inst        67781031                       # Total bandwidth to/from this memory (bytes/s)
system.mem_ctrls.bw_total::cpu02.data        21741085                       # Total bandwidth to/from this memory (bytes/s)
system.mem_ctrls.bw_total::cpu03.inst        65223256                       # Total bandwidth to/from this memory (bytes/s)
system.mem_ctrls.bw_total::cpu03.data        20462198                       # Total bandwidth to/from this memory (bytes/s)
system.mem_ctrls.bw_total::cpu04.inst        66502143                       # Total bandwidth to/from this memory (bytes/s)
system.mem_ctrls.bw_total::cpu04.data        21741085                       # Total bandwidth to/from this memory (bytes/s)
system.mem_ctrls.bw_total::cpu05.inst        66502143                       # Total bandwidth to/from this memory (bytes/s)
system.mem_ctrls.bw_total::cpu05.data        20462198                       # Total bandwidth to/from this memory (bytes/s)
system.mem_ctrls.bw_total::cpu06.inst        66502143                       # Total bandwidth to/from this memory (bytes/s)
system.mem_ctrls.bw_total::cpu06.data        21741085                       # Total bandwidth to/from this memory (bytes/s)
system.mem_ctrls.bw_total::cpu07.inst        67781031                       # Total bandwidth to/from this memory (bytes/s)
system.mem_ctrls.bw_total::cpu07.data        20462198                       # Total bandwidth to/from this memory (bytes/s)
system.mem_ctrls.bw_total::cpu08.inst        67781031                       # Total bandwidth to/from this memory (bytes/s)
system.mem_ctrls.bw_total::cpu08.data        21741085                       # Total bandwidth to/from this memory (bytes/s)
system.mem_ctrls.bw_total::cpu09.inst        66502143                       # Total bandwidth to/from this memory (bytes/s)
system.mem_ctrls.bw_total::cpu09.data        20462198                       # Total bandwidth to/from this memory (bytes/s)
system.mem_ctrls.bw_total::cpu10.inst        67781031                       # Total bandwidth to/from this memory (bytes/s)
system.mem_ctrls.bw_total::cpu10.data        21741085                       # Total bandwidth to/from this memory (bytes/s)
system.mem_ctrls.bw_total::cpu11.inst        66502143                       # Total bandwidth to/from this memory (bytes/s)
system.mem_ctrls.bw_total::cpu11.data        21741085                       # Total bandwidth to/from this memory (bytes/s)
system.mem_ctrls.bw_total::cpu12.inst        66502143                       # Total bandwidth to/from this memory (bytes/s)
system.mem_ctrls.bw_total::cpu12.data        24298860                       # Total bandwidth to/from this memory (bytes/s)
system.mem_ctrls.bw_total::cpu13.inst        67781031                       # Total bandwidth to/from this memory (bytes/s)
system.mem_ctrls.bw_total::cpu13.data        21741085                       # Total bandwidth to/from this memory (bytes/s)
system.mem_ctrls.bw_total::cpu14.inst        70338805                       # Total bandwidth to/from this memory (bytes/s)
system.mem_ctrls.bw_total::cpu14.data        21741085                       # Total bandwidth to/from this memory (bytes/s)
system.mem_ctrls.bw_total::cpu15.inst        65223256                       # Total bandwidth to/from this memory (bytes/s)
system.mem_ctrls.bw_total::cpu15.data        20462198                       # Total bandwidth to/from this memory (bytes/s)
system.mem_ctrls.bw_total::cpu16.inst        66502143                       # Total bandwidth to/from this memory (bytes/s)
system.mem_ctrls.bw_total::cpu16.data        21741085                       # Total bandwidth to/from this memory (bytes/s)
system.mem_ctrls.bw_total::cpu17.inst        67781031                       # Total bandwidth to/from this memory (bytes/s)
system.mem_ctrls.bw_total::cpu17.data        20462198                       # Total bandwidth to/from this memory (bytes/s)
system.mem_ctrls.bw_total::cpu18.inst        69059918                       # Total bandwidth to/from this memory (bytes/s)
system.mem_ctrls.bw_total::cpu18.data        21741085                       # Total bandwidth to/from this memory (bytes/s)
system.mem_ctrls.bw_total::cpu19.inst        67781031                       # Total bandwidth to/from this memory (bytes/s)
system.mem_ctrls.bw_total::cpu19.data        21741085                       # Total bandwidth to/from this memory (bytes/s)
system.mem_ctrls.bw_total::cpu20.inst        70338805                       # Total bandwidth to/from this memory (bytes/s)
system.mem_ctrls.bw_total::cpu20.data        21741085                       # Total bandwidth to/from this memory (bytes/s)
system.mem_ctrls.bw_total::cpu21.inst        66502143                       # Total bandwidth to/from this memory (bytes/s)
system.mem_ctrls.bw_total::cpu21.data        21741085                       # Total bandwidth to/from this memory (bytes/s)
system.mem_ctrls.bw_total::cpu22.inst        62665481                       # Total bandwidth to/from this memory (bytes/s)
system.mem_ctrls.bw_total::cpu22.data        20462198                       # Total bandwidth to/from this memory (bytes/s)
system.mem_ctrls.bw_total::cpu23.inst        69059918                       # Total bandwidth to/from this memory (bytes/s)
system.mem_ctrls.bw_total::cpu23.data        21741085                       # Total bandwidth to/from this memory (bytes/s)
system.mem_ctrls.bw_total::cpu24.inst        70338805                       # Total bandwidth to/from this memory (bytes/s)
system.mem_ctrls.bw_total::cpu24.data        21741085                       # Total bandwidth to/from this memory (bytes/s)
system.mem_ctrls.bw_total::cpu25.inst        67781031                       # Total bandwidth to/from this memory (bytes/s)
system.mem_ctrls.bw_total::cpu25.data        20462198                       # Total bandwidth to/from this memory (bytes/s)
system.mem_ctrls.bw_total::cpu26.inst        69059918                       # Total bandwidth to/from this memory (bytes/s)
system.mem_ctrls.bw_total::cpu26.data        21741085                       # Total bandwidth to/from this memory (bytes/s)
system.mem_ctrls.bw_total::cpu27.inst        67781031                       # Total bandwidth to/from this memory (bytes/s)
system.mem_ctrls.bw_total::cpu27.data        20462198                       # Total bandwidth to/from this memory (bytes/s)
system.mem_ctrls.bw_total::cpu28.inst        70338805                       # Total bandwidth to/from this memory (bytes/s)
system.mem_ctrls.bw_total::cpu28.data        21741085                       # Total bandwidth to/from this memory (bytes/s)
system.mem_ctrls.bw_total::cpu29.inst        69059918                       # Total bandwidth to/from this memory (bytes/s)
system.mem_ctrls.bw_total::cpu29.data        20462198                       # Total bandwidth to/from this memory (bytes/s)
system.mem_ctrls.bw_total::cpu30.inst        70338805                       # Total bandwidth to/from this memory (bytes/s)
system.mem_ctrls.bw_total::cpu30.data        20462198                       # Total bandwidth to/from this memory (bytes/s)
system.mem_ctrls.bw_total::cpu31.inst        67781031                       # Total bandwidth to/from this memory (bytes/s)
system.mem_ctrls.bw_total::cpu31.data        21741085                       # Total bandwidth to/from this memory (bytes/s)
system.mem_ctrls.bw_total::total           4082208479                       # Total bandwidth to/from this memory (bytes/s)
system.mem_ctrls.readReqs                        3160                       # Number of read requests accepted
system.mem_ctrls.writeReqs                         33                       # Number of write requests accepted
system.mem_ctrls.readBursts                      3160                       # Number of DRAM read bursts, including those serviced by the write queue
system.mem_ctrls.writeBursts                       33                       # Number of DRAM write bursts, including those merged in the write queue
system.mem_ctrls.bytesReadDRAM                 200192                       # Total number of bytes read from DRAM
system.mem_ctrls.bytesReadWrQ                    2048                       # Total number of bytes read from write queue
system.mem_ctrls.bytesWritten                    1024                       # Total number of bytes written to DRAM
system.mem_ctrls.bytesReadSys                  202240                       # Total read bytes from the system interface side
system.mem_ctrls.bytesWrittenSys                 2112                       # Total written bytes from the system interface side
system.mem_ctrls.servicedByWrQ                     32                       # Number of DRAM read bursts serviced by the write queue
system.mem_ctrls.mergedWrBursts                     0                       # Number of DRAM write bursts merged with an existing one
system.mem_ctrls.neitherReadNorWriteReqs           22                       # Number of requests that are neither read nor write
system.mem_ctrls.perBankRdBursts::0               368                       # Per bank write bursts
system.mem_ctrls.perBankRdBursts::1              1113                       # Per bank write bursts
system.mem_ctrls.perBankRdBursts::2               502                       # Per bank write bursts
system.mem_ctrls.perBankRdBursts::3               356                       # Per bank write bursts
system.mem_ctrls.perBankRdBursts::4               146                       # Per bank write bursts
system.mem_ctrls.perBankRdBursts::5               147                       # Per bank write bursts
system.mem_ctrls.perBankRdBursts::6               219                       # Per bank write bursts
system.mem_ctrls.perBankRdBursts::7                33                       # Per bank write bursts
system.mem_ctrls.perBankRdBursts::8                14                       # Per bank write bursts
system.mem_ctrls.perBankRdBursts::9                10                       # Per bank write bursts
system.mem_ctrls.perBankRdBursts::10                0                       # Per bank write bursts
system.mem_ctrls.perBankRdBursts::11               14                       # Per bank write bursts
system.mem_ctrls.perBankRdBursts::12                9                       # Per bank write bursts
system.mem_ctrls.perBankRdBursts::13               39                       # Per bank write bursts
system.mem_ctrls.perBankRdBursts::14               40                       # Per bank write bursts
system.mem_ctrls.perBankRdBursts::15              118                       # Per bank write bursts
system.mem_ctrls.perBankWrBursts::0                 0                       # Per bank write bursts
system.mem_ctrls.perBankWrBursts::1                 0                       # Per bank write bursts
system.mem_ctrls.perBankWrBursts::2                 1                       # Per bank write bursts
system.mem_ctrls.perBankWrBursts::3                 1                       # Per bank write bursts
system.mem_ctrls.perBankWrBursts::4                12                       # Per bank write bursts
system.mem_ctrls.perBankWrBursts::5                 0                       # Per bank write bursts
system.mem_ctrls.perBankWrBursts::6                 0                       # Per bank write bursts
system.mem_ctrls.perBankWrBursts::7                 0                       # Per bank write bursts
system.mem_ctrls.perBankWrBursts::8                 0                       # Per bank write bursts
system.mem_ctrls.perBankWrBursts::9                 0                       # Per bank write bursts
system.mem_ctrls.perBankWrBursts::10                0                       # Per bank write bursts
system.mem_ctrls.perBankWrBursts::11                0                       # Per bank write bursts
system.mem_ctrls.perBankWrBursts::12                0                       # Per bank write bursts
system.mem_ctrls.perBankWrBursts::13                0                       # Per bank write bursts
system.mem_ctrls.perBankWrBursts::14                0                       # Per bank write bursts
system.mem_ctrls.perBankWrBursts::15                2                       # Per bank write bursts
system.mem_ctrls.numRdRetry                       486                       # Number of times read queue was full causing retry
system.mem_ctrls.numWrRetry                         0                       # Number of times write queue was full causing retry
system.mem_ctrls.totGap                      50036000                       # Total gap between requests
system.mem_ctrls.readPktSize::0                     0                       # Read request sizes (log2)
system.mem_ctrls.readPktSize::1                     0                       # Read request sizes (log2)
system.mem_ctrls.readPktSize::2                     0                       # Read request sizes (log2)
system.mem_ctrls.readPktSize::3                     0                       # Read request sizes (log2)
system.mem_ctrls.readPktSize::4                     0                       # Read request sizes (log2)
system.mem_ctrls.readPktSize::5                     0                       # Read request sizes (log2)
system.mem_ctrls.readPktSize::6                  3160                       # Read request sizes (log2)
system.mem_ctrls.writePktSize::0                    0                       # Write request sizes (log2)
system.mem_ctrls.writePktSize::1                    0                       # Write request sizes (log2)
system.mem_ctrls.writePktSize::2                    0                       # Write request sizes (log2)
system.mem_ctrls.writePktSize::3                    0                       # Write request sizes (log2)
system.mem_ctrls.writePktSize::4                    0                       # Write request sizes (log2)
system.mem_ctrls.writePktSize::5                    0                       # Write request sizes (log2)
system.mem_ctrls.writePktSize::6                   33                       # Write request sizes (log2)
system.mem_ctrls.rdQLenPdf::0                     466                       # What read queue length does an incoming req see
system.mem_ctrls.rdQLenPdf::1                     293                       # What read queue length does an incoming req see
system.mem_ctrls.rdQLenPdf::2                     124                       # What read queue length does an incoming req see
system.mem_ctrls.rdQLenPdf::3                      70                       # What read queue length does an incoming req see
system.mem_ctrls.rdQLenPdf::4                      62                       # What read queue length does an incoming req see
system.mem_ctrls.rdQLenPdf::5                      77                       # What read queue length does an incoming req see
system.mem_ctrls.rdQLenPdf::6                     110                       # What read queue length does an incoming req see
system.mem_ctrls.rdQLenPdf::7                     137                       # What read queue length does an incoming req see
system.mem_ctrls.rdQLenPdf::8                     167                       # What read queue length does an incoming req see
system.mem_ctrls.rdQLenPdf::9                     143                       # What read queue length does an incoming req see
system.mem_ctrls.rdQLenPdf::10                    151                       # What read queue length does an incoming req see
system.mem_ctrls.rdQLenPdf::11                    171                       # What read queue length does an incoming req see
system.mem_ctrls.rdQLenPdf::12                    164                       # What read queue length does an incoming req see
system.mem_ctrls.rdQLenPdf::13                    141                       # What read queue length does an incoming req see
system.mem_ctrls.rdQLenPdf::14                     84                       # What read queue length does an incoming req see
system.mem_ctrls.rdQLenPdf::15                     61                       # What read queue length does an incoming req see
system.mem_ctrls.rdQLenPdf::16                     39                       # What read queue length does an incoming req see
system.mem_ctrls.rdQLenPdf::17                     30                       # What read queue length does an incoming req see
system.mem_ctrls.rdQLenPdf::18                     17                       # What read queue length does an incoming req see
system.mem_ctrls.rdQLenPdf::19                     14                       # What read queue length does an incoming req see
system.mem_ctrls.rdQLenPdf::20                     10                       # What read queue length does an incoming req see
system.mem_ctrls.rdQLenPdf::21                      5                       # What read queue length does an incoming req see
system.mem_ctrls.rdQLenPdf::22                      1                       # What read queue length does an incoming req see
system.mem_ctrls.rdQLenPdf::23                      6                       # What read queue length does an incoming req see
system.mem_ctrls.rdQLenPdf::24                      6                       # What read queue length does an incoming req see
system.mem_ctrls.rdQLenPdf::25                     13                       # What read queue length does an incoming req see
system.mem_ctrls.rdQLenPdf::26                     15                       # What read queue length does an incoming req see
system.mem_ctrls.rdQLenPdf::27                     14                       # What read queue length does an incoming req see
system.mem_ctrls.rdQLenPdf::28                     17                       # What read queue length does an incoming req see
system.mem_ctrls.rdQLenPdf::29                      9                       # What read queue length does an incoming req see
system.mem_ctrls.rdQLenPdf::30                      6                       # What read queue length does an incoming req see
system.mem_ctrls.rdQLenPdf::31                    505                       # What read queue length does an incoming req see
system.mem_ctrls.wrQLenPdf::0                       1                       # What write queue length does an incoming req see
system.mem_ctrls.wrQLenPdf::1                       1                       # What write queue length does an incoming req see
system.mem_ctrls.wrQLenPdf::2                       1                       # What write queue length does an incoming req see
system.mem_ctrls.wrQLenPdf::3                       1                       # What write queue length does an incoming req see
system.mem_ctrls.wrQLenPdf::4                       1                       # What write queue length does an incoming req see
system.mem_ctrls.wrQLenPdf::5                       1                       # What write queue length does an incoming req see
system.mem_ctrls.wrQLenPdf::6                       1                       # What write queue length does an incoming req see
system.mem_ctrls.wrQLenPdf::7                       1                       # What write queue length does an incoming req see
system.mem_ctrls.wrQLenPdf::8                       1                       # What write queue length does an incoming req see
system.mem_ctrls.wrQLenPdf::9                       1                       # What write queue length does an incoming req see
system.mem_ctrls.wrQLenPdf::10                      1                       # What write queue length does an incoming req see
system.mem_ctrls.wrQLenPdf::11                      1                       # What write queue length does an incoming req see
system.mem_ctrls.wrQLenPdf::12                      1                       # What write queue length does an incoming req see
system.mem_ctrls.wrQLenPdf::13                      1                       # What write queue length does an incoming req see
system.mem_ctrls.wrQLenPdf::14                      1                       # What write queue length does an incoming req see
system.mem_ctrls.wrQLenPdf::15                      1                       # What write queue length does an incoming req see
system.mem_ctrls.wrQLenPdf::16                      1                       # What write queue length does an incoming req see
system.mem_ctrls.wrQLenPdf::17                      1                       # What write queue length does an incoming req see
system.mem_ctrls.wrQLenPdf::18                      1                       # What write queue length does an incoming req see
system.mem_ctrls.wrQLenPdf::19                      1                       # What write queue length does an incoming req see
system.mem_ctrls.wrQLenPdf::20                      1                       # What write queue length does an incoming req see
system.mem_ctrls.wrQLenPdf::21                      1                       # What write queue length does an incoming req see
system.mem_ctrls.wrQLenPdf::22                      1                       # What write queue length does an incoming req see
system.mem_ctrls.wrQLenPdf::23                      1                       # What write queue length does an incoming req see
system.mem_ctrls.wrQLenPdf::24                      1                       # What write queue length does an incoming req see
system.mem_ctrls.wrQLenPdf::25                      1                       # What write queue length does an incoming req see
system.mem_ctrls.wrQLenPdf::26                      1                       # What write queue length does an incoming req see
system.mem_ctrls.wrQLenPdf::27                      1                       # What write queue length does an incoming req see
system.mem_ctrls.wrQLenPdf::28                      1                       # What write queue length does an incoming req see
system.mem_ctrls.wrQLenPdf::29                      1                       # What write queue length does an incoming req see
system.mem_ctrls.wrQLenPdf::30                      1                       # What write queue length does an incoming req see
system.mem_ctrls.wrQLenPdf::31                      1                       # What write queue length does an incoming req see
system.mem_ctrls.wrQLenPdf::32                      1                       # What write queue length does an incoming req see
system.mem_ctrls.wrQLenPdf::33                      0                       # What write queue length does an incoming req see
system.mem_ctrls.wrQLenPdf::34                      0                       # What write queue length does an incoming req see
system.mem_ctrls.wrQLenPdf::35                      0                       # What write queue length does an incoming req see
system.mem_ctrls.wrQLenPdf::36                      0                       # What write queue length does an incoming req see
system.mem_ctrls.wrQLenPdf::37                      0                       # What write queue length does an incoming req see
system.mem_ctrls.wrQLenPdf::38                      0                       # What write queue length does an incoming req see
system.mem_ctrls.wrQLenPdf::39                      0                       # What write queue length does an incoming req see
system.mem_ctrls.wrQLenPdf::40                      0                       # What write queue length does an incoming req see
system.mem_ctrls.wrQLenPdf::41                      0                       # What write queue length does an incoming req see
system.mem_ctrls.wrQLenPdf::42                      0                       # What write queue length does an incoming req see
system.mem_ctrls.wrQLenPdf::43                      0                       # What write queue length does an incoming req see
system.mem_ctrls.wrQLenPdf::44                      0                       # What write queue length does an incoming req see
system.mem_ctrls.wrQLenPdf::45                      0                       # What write queue length does an incoming req see
system.mem_ctrls.wrQLenPdf::46                      0                       # What write queue length does an incoming req see
system.mem_ctrls.wrQLenPdf::47                      0                       # What write queue length does an incoming req see
system.mem_ctrls.wrQLenPdf::48                      0                       # What write queue length does an incoming req see
system.mem_ctrls.wrQLenPdf::49                      0                       # What write queue length does an incoming req see
system.mem_ctrls.wrQLenPdf::50                      0                       # What write queue length does an incoming req see
system.mem_ctrls.wrQLenPdf::51                      0                       # What write queue length does an incoming req see
system.mem_ctrls.wrQLenPdf::52                      0                       # What write queue length does an incoming req see
system.mem_ctrls.wrQLenPdf::53                      0                       # What write queue length does an incoming req see
system.mem_ctrls.wrQLenPdf::54                      0                       # What write queue length does an incoming req see
system.mem_ctrls.wrQLenPdf::55                      0                       # What write queue length does an incoming req see
system.mem_ctrls.wrQLenPdf::56                      0                       # What write queue length does an incoming req see
system.mem_ctrls.wrQLenPdf::57                      0                       # What write queue length does an incoming req see
system.mem_ctrls.wrQLenPdf::58                      0                       # What write queue length does an incoming req see
system.mem_ctrls.wrQLenPdf::59                      0                       # What write queue length does an incoming req see
system.mem_ctrls.wrQLenPdf::60                      0                       # What write queue length does an incoming req see
system.mem_ctrls.wrQLenPdf::61                      0                       # What write queue length does an incoming req see
system.mem_ctrls.wrQLenPdf::62                      0                       # What write queue length does an incoming req see
system.mem_ctrls.wrQLenPdf::63                      0                       # What write queue length does an incoming req see
system.mem_ctrls.bytesPerActivate::samples          682                       # Bytes accessed per row activation
system.mem_ctrls.bytesPerActivate::mean    292.504399                       # Bytes accessed per row activation
system.mem_ctrls.bytesPerActivate::gmean   151.255284                       # Bytes accessed per row activation
system.mem_ctrls.bytesPerActivate::stdev   356.135339                       # Bytes accessed per row activation
system.mem_ctrls.bytesPerActivate::0-127          367     53.81%     53.81% # Bytes accessed per row activation
system.mem_ctrls.bytesPerActivate::128-255          106     15.54%     69.35% # Bytes accessed per row activation
system.mem_ctrls.bytesPerActivate::256-383           30      4.40%     73.75% # Bytes accessed per row activation
system.mem_ctrls.bytesPerActivate::384-511           22      3.23%     76.98% # Bytes accessed per row activation
system.mem_ctrls.bytesPerActivate::512-639           21      3.08%     80.06% # Bytes accessed per row activation
system.mem_ctrls.bytesPerActivate::640-767           13      1.91%     81.96% # Bytes accessed per row activation
system.mem_ctrls.bytesPerActivate::768-895           11      1.61%     83.58% # Bytes accessed per row activation
system.mem_ctrls.bytesPerActivate::896-1023            9      1.32%     84.90% # Bytes accessed per row activation
system.mem_ctrls.bytesPerActivate::1024-1151          103     15.10%    100.00% # Bytes accessed per row activation
system.mem_ctrls.bytesPerActivate::total          682                       # Bytes accessed per row activation
system.mem_ctrls.rdPerTurnAround::samples            1                       # Reads before turning the bus around for writes
system.mem_ctrls.rdPerTurnAround::mean           3110                       # Reads before turning the bus around for writes
system.mem_ctrls.rdPerTurnAround::gmean          3110                       # Reads before turning the bus around for writes
system.mem_ctrls.rdPerTurnAround::stdev           nan                       # Reads before turning the bus around for writes
system.mem_ctrls.rdPerTurnAround::3072-3199            1    100.00%    100.00% # Reads before turning the bus around for writes
system.mem_ctrls.rdPerTurnAround::total             1                       # Reads before turning the bus around for writes
system.mem_ctrls.wrPerTurnAround::samples            1                       # Writes before turning the bus around for reads
system.mem_ctrls.wrPerTurnAround::mean             16                       # Writes before turning the bus around for reads
system.mem_ctrls.wrPerTurnAround::gmean     16.000000                       # Writes before turning the bus around for reads
system.mem_ctrls.wrPerTurnAround::stdev           nan                       # Writes before turning the bus around for reads
system.mem_ctrls.wrPerTurnAround::16                1    100.00%    100.00% # Writes before turning the bus around for reads
system.mem_ctrls.wrPerTurnAround::total             1                       # Writes before turning the bus around for reads
system.mem_ctrls.totQLat                    216171000                       # Total ticks spent queuing
system.mem_ctrls.totMemAccLat               274821000                       # Total ticks spent from burst creation until serviced by the DRAM
system.mem_ctrls.totBusLat                   15640000                       # Total ticks spent in databus transfers
system.mem_ctrls.avgQLat                     69108.38                       # Average queueing delay per DRAM burst
system.mem_ctrls.avgBusLat                    5000.00                       # Average bus latency per DRAM burst
system.mem_ctrls.avgMemAccLat                87858.38                       # Average memory access latency per DRAM burst
system.mem_ctrls.avgRdBW                      4000.36                       # Average DRAM read bandwidth in MiByte/s
system.mem_ctrls.avgWrBW                        20.46                       # Average achieved write bandwidth in MiByte/s
system.mem_ctrls.avgRdBWSys                   4041.28                       # Average system read bandwidth in MiByte/s
system.mem_ctrls.avgWrBWSys                     42.20                       # Average system write bandwidth in MiByte/s
system.mem_ctrls.peakBW                      12800.00                       # Theoretical peak bandwidth in MiByte/s
system.mem_ctrls.busUtil                        31.41                       # Data bus utilization in percentage
system.mem_ctrls.busUtilRead                    31.25                       # Data bus utilization in percentage for reads
system.mem_ctrls.busUtilWrite                    0.16                       # Data bus utilization in percentage for writes
system.mem_ctrls.avgRdQLen                       6.52                       # Average read queue length when enqueuing
system.mem_ctrls.avgWrQLen                      10.26                       # Average write queue length when enqueuing
system.mem_ctrls.readRowHits                     2450                       # Number of row buffer hits during reads
system.mem_ctrls.writeRowHits                       2                       # Number of row buffer hits during writes
system.mem_ctrls.readRowHitRate                 78.32                       # Row buffer hit rate for reads
system.mem_ctrls.writeRowHitRate                 6.06                       # Row buffer hit rate for writes
system.mem_ctrls.avgGap                      15670.53                       # Average gap between requests
system.mem_ctrls.pageHitRate                    77.57                       # Row buffer hit rate, read and write combined
system.mem_ctrls_0.actEnergy                  4619160                       # Energy for activate commands per rank (pJ)
system.mem_ctrls_0.preEnergy                  2520375                       # Energy for precharge commands per rank (pJ)
system.mem_ctrls_0.readEnergy                22050600                       # Energy for read commands per rank (pJ)
system.mem_ctrls_0.writeEnergy                      0                       # Energy for write commands per rank (pJ)
system.mem_ctrls_0.refreshEnergy              3051360                       # Energy for refresh commands per rank (pJ)
system.mem_ctrls_0.actBackEnergy             32028300                       # Energy for active background per rank (pJ)
system.mem_ctrls_0.preBackEnergy                91500                       # Energy for precharge background per rank (pJ)
system.mem_ctrls_0.totalEnergy               64361295                       # Total energy per rank (pJ)
system.mem_ctrls_0.averagePower           1370.045128                       # Core power per rank (mW)
system.mem_ctrls_0.memoryStateTime::IDLE         1000                       # Time in different power states
system.mem_ctrls_0.memoryStateTime::REF       1560000                       # Time in different power states
system.mem_ctrls_0.memoryStateTime::PRE_PDN            0                       # Time in different power states
system.mem_ctrls_0.memoryStateTime::ACT      45430250                       # Time in different power states
system.mem_ctrls_0.memoryStateTime::ACT_PDN            0                       # Time in different power states
system.mem_ctrls_1.actEnergy                   234360                       # Energy for activate commands per rank (pJ)
system.mem_ctrls_1.preEnergy                   127875                       # Energy for precharge commands per rank (pJ)
system.mem_ctrls_1.readEnergy                 1583400                       # Energy for read commands per rank (pJ)
system.mem_ctrls_1.writeEnergy                      0                       # Energy for write commands per rank (pJ)
system.mem_ctrls_1.refreshEnergy              3051360                       # Energy for refresh commands per rank (pJ)
system.mem_ctrls_1.actBackEnergy             30819330                       # Energy for active background per rank (pJ)
system.mem_ctrls_1.preBackEnergy              1152000                       # Energy for precharge background per rank (pJ)
system.mem_ctrls_1.totalEnergy               36968325                       # Total energy per rank (pJ)
system.mem_ctrls_1.averagePower            786.936831                       # Core power per rank (mW)
system.mem_ctrls_1.memoryStateTime::IDLE      2128500                       # Time in different power states
system.mem_ctrls_1.memoryStateTime::REF       1560000                       # Time in different power states
system.mem_ctrls_1.memoryStateTime::PRE_PDN            0                       # Time in different power states
system.mem_ctrls_1.memoryStateTime::ACT      43705500                       # Time in different power states
system.mem_ctrls_1.memoryStateTime::ACT_PDN            0                       # Time in different power states
system.cpu00.branchPred.lookups                 11096                       # Number of BP lookups
system.cpu00.branchPred.condPredicted            8541                       # Number of conditional branches predicted
system.cpu00.branchPred.condIncorrect             971                       # Number of conditional branches incorrect
system.cpu00.branchPred.BTBLookups               7428                       # Number of BTB lookups
system.cpu00.branchPred.BTBHits                  4046                       # Number of BTB hits
system.cpu00.branchPred.BTBCorrect                  0                       # Number of correct BTB predictions (this stat may not work properly.
system.cpu00.branchPred.BTBHitPct           54.469575                       # BTB Hit Percentage
system.cpu00.branchPred.usedRAS                  1083                       # Number of times the RAS was used to get a target.
system.cpu00.branchPred.RASInCorrect               12                       # Number of incorrect RAS predictions.
system.cpu_voltage_domain.voltage                   1                       # Voltage in Volts
system.cpu_clk_domain.clock                       500                       # Clock period in ticks
system.cpu00.dstage2_mmu.stage2_tlb.walker.walks            0                       # Table walker walks requested
system.cpu00.dstage2_mmu.stage2_tlb.walker.walkRequestOrigin_Requested::Data            0                       # Table walker requests started/completed, data/inst
system.cpu00.dstage2_mmu.stage2_tlb.walker.walkRequestOrigin_Requested::Inst            0                       # Table walker requests started/completed, data/inst
system.cpu00.dstage2_mmu.stage2_tlb.walker.walkRequestOrigin_Requested::total            0                       # Table walker requests started/completed, data/inst
system.cpu00.dstage2_mmu.stage2_tlb.walker.walkRequestOrigin_Completed::Data            0                       # Table walker requests started/completed, data/inst
system.cpu00.dstage2_mmu.stage2_tlb.walker.walkRequestOrigin_Completed::Inst            0                       # Table walker requests started/completed, data/inst
system.cpu00.dstage2_mmu.stage2_tlb.walker.walkRequestOrigin_Completed::total            0                       # Table walker requests started/completed, data/inst
system.cpu00.dstage2_mmu.stage2_tlb.walker.walkRequestOrigin::total            0                       # Table walker requests started/completed, data/inst
system.cpu00.dstage2_mmu.stage2_tlb.inst_hits            0                       # ITB inst hits
system.cpu00.dstage2_mmu.stage2_tlb.inst_misses            0                       # ITB inst misses
system.cpu00.dstage2_mmu.stage2_tlb.read_hits            0                       # DTB read hits
system.cpu00.dstage2_mmu.stage2_tlb.read_misses            0                       # DTB read misses
system.cpu00.dstage2_mmu.stage2_tlb.write_hits            0                       # DTB write hits
system.cpu00.dstage2_mmu.stage2_tlb.write_misses            0                       # DTB write misses
system.cpu00.dstage2_mmu.stage2_tlb.flush_tlb            0                       # Number of times complete TLB was flushed
system.cpu00.dstage2_mmu.stage2_tlb.flush_tlb_mva            0                       # Number of times TLB was flushed by MVA
system.cpu00.dstage2_mmu.stage2_tlb.flush_tlb_mva_asid            0                       # Number of times TLB was flushed by MVA & ASID
system.cpu00.dstage2_mmu.stage2_tlb.flush_tlb_asid            0                       # Number of times TLB was flushed by ASID
system.cpu00.dstage2_mmu.stage2_tlb.flush_entries            0                       # Number of entries that have been flushed from TLB
system.cpu00.dstage2_mmu.stage2_tlb.align_faults            0                       # Number of TLB faults due to alignment restrictions
system.cpu00.dstage2_mmu.stage2_tlb.prefetch_faults            0                       # Number of TLB faults due to prefetch
system.cpu00.dstage2_mmu.stage2_tlb.domain_faults            0                       # Number of TLB faults due to domain restrictions
system.cpu00.dstage2_mmu.stage2_tlb.perms_faults            0                       # Number of TLB faults due to permissions restrictions
system.cpu00.dstage2_mmu.stage2_tlb.read_accesses            0                       # DTB read accesses
system.cpu00.dstage2_mmu.stage2_tlb.write_accesses            0                       # DTB write accesses
system.cpu00.dstage2_mmu.stage2_tlb.inst_accesses            0                       # ITB inst accesses
system.cpu00.dstage2_mmu.stage2_tlb.hits            0                       # DTB hits
system.cpu00.dstage2_mmu.stage2_tlb.misses            0                       # DTB misses
system.cpu00.dstage2_mmu.stage2_tlb.accesses            0                       # DTB accesses
system.cpu00.dtb.walker.walks                       0                       # Table walker walks requested
system.cpu00.dtb.walker.walkRequestOrigin_Requested::Data            0                       # Table walker requests started/completed, data/inst
system.cpu00.dtb.walker.walkRequestOrigin_Requested::Inst            0                       # Table walker requests started/completed, data/inst
system.cpu00.dtb.walker.walkRequestOrigin_Requested::total            0                       # Table walker requests started/completed, data/inst
system.cpu00.dtb.walker.walkRequestOrigin_Completed::Data            0                       # Table walker requests started/completed, data/inst
system.cpu00.dtb.walker.walkRequestOrigin_Completed::Inst            0                       # Table walker requests started/completed, data/inst
system.cpu00.dtb.walker.walkRequestOrigin_Completed::total            0                       # Table walker requests started/completed, data/inst
system.cpu00.dtb.walker.walkRequestOrigin::total            0                       # Table walker requests started/completed, data/inst
system.cpu00.dtb.inst_hits                          0                       # ITB inst hits
system.cpu00.dtb.inst_misses                        0                       # ITB inst misses
system.cpu00.dtb.read_hits                          0                       # DTB read hits
system.cpu00.dtb.read_misses                        0                       # DTB read misses
system.cpu00.dtb.write_hits                         0                       # DTB write hits
system.cpu00.dtb.write_misses                       0                       # DTB write misses
system.cpu00.dtb.flush_tlb                          0                       # Number of times complete TLB was flushed
system.cpu00.dtb.flush_tlb_mva                      0                       # Number of times TLB was flushed by MVA
system.cpu00.dtb.flush_tlb_mva_asid                 0                       # Number of times TLB was flushed by MVA & ASID
system.cpu00.dtb.flush_tlb_asid                     0                       # Number of times TLB was flushed by ASID
system.cpu00.dtb.flush_entries                      0                       # Number of entries that have been flushed from TLB
system.cpu00.dtb.align_faults                       0                       # Number of TLB faults due to alignment restrictions
system.cpu00.dtb.prefetch_faults                    0                       # Number of TLB faults due to prefetch
system.cpu00.dtb.domain_faults                      0                       # Number of TLB faults due to domain restrictions
system.cpu00.dtb.perms_faults                       0                       # Number of TLB faults due to permissions restrictions
system.cpu00.dtb.read_accesses                      0                       # DTB read accesses
system.cpu00.dtb.write_accesses                     0                       # DTB write accesses
system.cpu00.dtb.inst_accesses                      0                       # ITB inst accesses
system.cpu00.dtb.hits                               0                       # DTB hits
system.cpu00.dtb.misses                             0                       # DTB misses
system.cpu00.dtb.accesses                           0                       # DTB accesses
system.cpu00.istage2_mmu.stage2_tlb.walker.walks            0                       # Table walker walks requested
system.cpu00.istage2_mmu.stage2_tlb.walker.walkRequestOrigin_Requested::Data            0                       # Table walker requests started/completed, data/inst
system.cpu00.istage2_mmu.stage2_tlb.walker.walkRequestOrigin_Requested::Inst            0                       # Table walker requests started/completed, data/inst
system.cpu00.istage2_mmu.stage2_tlb.walker.walkRequestOrigin_Requested::total            0                       # Table walker requests started/completed, data/inst
system.cpu00.istage2_mmu.stage2_tlb.walker.walkRequestOrigin_Completed::Data            0                       # Table walker requests started/completed, data/inst
[...]
system.membus.snoop_fanout::3                       0      0.00%      0.00% # Request fanout histogram
system.membus.snoop_fanout::4                       0      0.00%      0.00% # Request fanout histogram
system.membus.snoop_fanout::5                       0      0.00%      0.00% # Request fanout histogram
system.membus.snoop_fanout::6                       0      0.00%      0.00% # Request fanout histogram
system.membus.snoop_fanout::7                       0      0.00%      0.00% # Request fanout histogram
system.membus.snoop_fanout::8                       0      0.00%      0.00% # Request fanout histogram
system.membus.snoop_fanout::9                       0      0.00%      0.00% # Request fanout histogram
system.membus.snoop_fanout::10                      0      0.00%      0.00% # Request fanout histogram
system.membus.snoop_fanout::11                      0      0.00%      0.00% # Request fanout histogram
system.membus.snoop_fanout::12                      0      0.00%      0.00% # Request fanout histogram
system.membus.snoop_fanout::13                      0      0.00%      0.00% # Request fanout histogram
system.membus.snoop_fanout::14                      0      0.00%      0.00% # Request fanout histogram
system.membus.snoop_fanout::15                      0      0.00%      0.00% # Request fanout histogram
system.membus.snoop_fanout::16                      0      0.00%      0.00% # Request fanout histogram
system.membus.snoop_fanout::17                      0      0.00%      0.00% # Request fanout histogram
system.membus.snoop_fanout::18                      0      0.00%      0.00% # Request fanout histogram
system.membus.snoop_fanout::19                      0      0.00%      0.00% # Request fanout histogram
system.membus.snoop_fanout::20                      0      0.00%      0.00% # Request fanout histogram
system.membus.snoop_fanout::21                      0      0.00%      0.00% # Request fanout histogram
system.membus.snoop_fanout::22                      0      0.00%      0.00% # Request fanout histogram
system.membus.snoop_fanout::23                      0      0.00%      0.00% # Request fanout histogram
system.membus.snoop_fanout::24                      0      0.00%      0.00% # Request fanout histogram
system.membus.snoop_fanout::25                      0      0.00%      0.00% # Request fanout histogram
system.membus.snoop_fanout::26                      0      0.00%      0.00% # Request fanout histogram
system.membus.snoop_fanout::27                      0      0.00%      0.00% # Request fanout histogram
system.membus.snoop_fanout::28                      0      0.00%      0.00% # Request fanout histogram
system.membus.snoop_fanout::29                      0      0.00%      0.00% # Request fanout histogram
system.membus.snoop_fanout::30                      0      0.00%      0.00% # Request fanout histogram
system.membus.snoop_fanout::31                      0      0.00%      0.00% # Request fanout histogram
system.membus.snoop_fanout::32                      0      0.00%      0.00% # Request fanout histogram
system.membus.snoop_fanout::33                      0      0.00%      0.00% # Request fanout histogram
system.membus.snoop_fanout::34                      0      0.00%      0.00% # Request fanout histogram
system.membus.snoop_fanout::35                      0      0.00%      0.00% # Request fanout histogram
system.membus.snoop_fanout::36                      0      0.00%      0.00% # Request fanout histogram
system.membus.snoop_fanout::37                      0      0.00%      0.00% # Request fanout histogram
system.membus.snoop_fanout::38                      0      0.00%      0.00% # Request fanout histogram
system.membus.snoop_fanout::39                      0      0.00%      0.00% # Request fanout histogram
system.membus.snoop_fanout::40                      0      0.00%      0.00% # Request fanout histogram
system.membus.snoop_fanout::41                      0      0.00%      0.00% # Request fanout histogram
system.membus.snoop_fanout::42                      0      0.00%      0.00% # Request fanout histogram
system.membus.snoop_fanout::43                      0      0.00%      0.00% # Request fanout histogram
system.membus.snoop_fanout::44                      0      0.00%      0.00% # Request fanout histogram
system.membus.snoop_fanout::45                      0      0.00%      0.00% # Request fanout histogram
system.membus.snoop_fanout::46                      0      0.00%      0.00% # Request fanout histogram
system.membus.snoop_fanout::47                      0      0.00%      0.00% # Request fanout histogram
system.membus.snoop_fanout::48                      0      0.00%      0.00% # Request fanout histogram
system.membus.snoop_fanout::49                      0      0.00%      0.00% # Request fanout histogram
system.membus.snoop_fanout::50                      0      0.00%      0.00% # Request fanout histogram
system.membus.snoop_fanout::51                      0      0.00%      0.00% # Request fanout histogram
system.membus.snoop_fanout::52                      0      0.00%      0.00% # Request fanout histogram
system.membus.snoop_fanout::53                      0      0.00%      0.00% # Request fanout histogram
system.membus.snoop_fanout::54                      0      0.00%      0.00% # Request fanout histogram
system.membus.snoop_fanout::55                      0      0.00%      0.00% # Request fanout histogram
system.membus.snoop_fanout::56                      0      0.00%      0.00% # Request fanout histogram
system.membus.snoop_fanout::57                      0      0.00%      0.00% # Request fanout histogram
system.membus.snoop_fanout::58                      0      0.00%      0.00% # Request fanout histogram
system.membus.snoop_fanout::59                      0      0.00%      0.00% # Request fanout histogram
system.membus.snoop_fanout::60                      0      0.00%      0.00% # Request fanout histogram
system.membus.snoop_fanout::61                      0      0.00%      0.00% # Request fanout histogram
system.membus.snoop_fanout::62                      0      0.00%      0.00% # Request fanout histogram
system.membus.snoop_fanout::63                   5224    100.00%    100.00% # Request fanout histogram
system.membus.snoop_fanout::64                      0      0.00%    100.00% # Request fanout histogram
system.membus.snoop_fanout::overflows               0      0.00%    100.00% # Request fanout histogram
system.membus.snoop_fanout::min_value              63                       # Request fanout histogram
system.membus.snoop_fanout::max_value              63                       # Request fanout histogram
system.membus.snoop_fanout::total                5224                       # Request fanout histogram
system.membus.reqLayer0.occupancy             6161465                       # Layer occupancy (ticks)
system.membus.reqLayer0.utilization              12.3                       # Layer utilization (%)
system.membus.respLayer1.occupancy            3192250                       # Layer occupancy (ticks)
system.membus.respLayer1.utilization              6.4                       # Layer utilization (%)
system.membus.respLayer2.occupancy            2200988                       # Layer occupancy (ticks)
system.membus.respLayer2.utilization              4.4                       # Layer utilization (%)
system.membus.respLayer5.occupancy             285250                       # Layer occupancy (ticks)
system.membus.respLayer5.utilization              0.6                       # Layer utilization (%)
system.membus.respLayer6.occupancy             417423                       # Layer occupancy (ticks)
system.membus.respLayer6.utilization              0.8                       # Layer utilization (%)
system.membus.respLayer9.occupancy             279750                       # Layer occupancy (ticks)
system.membus.respLayer9.utilization              0.6                       # Layer utilization (%)
system.membus.respLayer10.occupancy            410656                       # Layer occupancy (ticks)
system.membus.respLayer10.utilization             0.8                       # Layer utilization (%)
system.membus.respLayer13.occupancy            269250                       # Layer occupancy (ticks)
system.membus.respLayer13.utilization             0.5                       # Layer utilization (%)
system.membus.respLayer14.occupancy            258224                       # Layer occupancy (ticks)
system.membus.respLayer14.utilization             0.5                       # Layer utilization (%)
system.membus.respLayer17.occupancy            272500                       # Layer occupancy (ticks)
system.membus.respLayer17.utilization             0.5                       # Layer utilization (%)
system.membus.respLayer18.occupancy            410685                       # Layer occupancy (ticks)
system.membus.respLayer18.utilization             0.8                       # Layer utilization (%)
system.membus.respLayer21.occupancy            275750                       # Layer occupancy (ticks)
system.membus.respLayer21.utilization             0.6                       # Layer utilization (%)
system.membus.respLayer22.occupancy            320217                       # Layer occupancy (ticks)
system.membus.respLayer22.utilization             0.6                       # Layer utilization (%)
system.membus.respLayer25.occupancy            273000                       # Layer occupancy (ticks)
system.membus.respLayer25.utilization             0.5                       # Layer utilization (%)
system.membus.respLayer26.occupancy            355455                       # Layer occupancy (ticks)
system.membus.respLayer26.utilization             0.7                       # Layer utilization (%)
system.membus.respLayer29.occupancy            282750                       # Layer occupancy (ticks)
system.membus.respLayer29.utilization             0.6                       # Layer utilization (%)
system.membus.respLayer30.occupancy            296460                       # Layer occupancy (ticks)
system.membus.respLayer30.utilization             0.6                       # Layer utilization (%)
system.membus.respLayer33.occupancy            280750                       # Layer occupancy (ticks)
system.membus.respLayer33.utilization             0.6                       # Layer utilization (%)
system.membus.respLayer34.occupancy            297170                       # Layer occupancy (ticks)
system.membus.respLayer34.utilization             0.6                       # Layer utilization (%)
system.membus.respLayer37.occupancy            274750                       # Layer occupancy (ticks)
system.membus.respLayer37.utilization             0.5                       # Layer utilization (%)
system.membus.respLayer38.occupancy            344402                       # Layer occupancy (ticks)
system.membus.respLayer38.utilization             0.7                       # Layer utilization (%)
system.membus.respLayer41.occupancy            277750                       # Layer occupancy (ticks)
system.membus.respLayer41.utilization             0.6                       # Layer utilization (%)
system.membus.respLayer42.occupancy            348174                       # Layer occupancy (ticks)
system.membus.respLayer42.utilization             0.7                       # Layer utilization (%)
system.membus.respLayer45.occupancy            273750                       # Layer occupancy (ticks)
system.membus.respLayer45.utilization             0.5                       # Layer utilization (%)
system.membus.respLayer46.occupancy            367154                       # Layer occupancy (ticks)
system.membus.respLayer46.utilization             0.7                       # Layer utilization (%)
system.membus.respLayer49.occupancy            274250                       # Layer occupancy (ticks)
system.membus.respLayer49.utilization             0.5                       # Layer utilization (%)
system.membus.respLayer50.occupancy            361896                       # Layer occupancy (ticks)
system.membus.respLayer50.utilization             0.7                       # Layer utilization (%)
system.membus.respLayer53.occupancy            278000                       # Layer occupancy (ticks)
system.membus.respLayer53.utilization             0.6                       # Layer utilization (%)
system.membus.respLayer54.occupancy            429193                       # Layer occupancy (ticks)
system.membus.respLayer54.utilization             0.9                       # Layer utilization (%)
system.membus.respLayer57.occupancy            285500                       # Layer occupancy (ticks)
system.membus.respLayer57.utilization             0.6                       # Layer utilization (%)
system.membus.respLayer58.occupancy            426910                       # Layer occupancy (ticks)
system.membus.respLayer58.utilization             0.9                       # Layer utilization (%)
system.membus.respLayer61.occupancy            267250                       # Layer occupancy (ticks)
system.membus.respLayer61.utilization             0.5                       # Layer utilization (%)
system.membus.respLayer62.occupancy            226492                       # Layer occupancy (ticks)
system.membus.respLayer62.utilization             0.5                       # Layer utilization (%)
system.membus.respLayer65.occupancy            274000                       # Layer occupancy (ticks)
system.membus.respLayer65.utilization             0.5                       # Layer utilization (%)
system.membus.respLayer66.occupancy            426676                       # Layer occupancy (ticks)
system.membus.respLayer66.utilization             0.9                       # Layer utilization (%)
system.membus.respLayer69.occupancy            278000                       # Layer occupancy (ticks)
system.membus.respLayer69.utilization             0.6                       # Layer utilization (%)
system.membus.respLayer70.occupancy            372937                       # Layer occupancy (ticks)
system.membus.respLayer70.utilization             0.7                       # Layer utilization (%)
system.membus.respLayer73.occupancy            285500                       # Layer occupancy (ticks)
system.membus.respLayer73.utilization             0.6                       # Layer utilization (%)
system.membus.respLayer74.occupancy            292931                       # Layer occupancy (ticks)
system.membus.respLayer74.utilization             0.6                       # Layer utilization (%)
system.membus.respLayer77.occupancy            277250                       # Layer occupancy (ticks)
system.membus.respLayer77.utilization             0.6                       # Layer utilization (%)
system.membus.respLayer78.occupancy            382407                       # Layer occupancy (ticks)
system.membus.respLayer78.utilization             0.8                       # Layer utilization (%)
system.membus.respLayer81.occupancy            287750                       # Layer occupancy (ticks)
system.membus.respLayer81.utilization             0.6                       # Layer utilization (%)
system.membus.respLayer82.occupancy            325195                       # Layer occupancy (ticks)
system.membus.respLayer82.utilization             0.6                       # Layer utilization (%)
system.membus.respLayer85.occupancy            273000                       # Layer occupancy (ticks)
system.membus.respLayer85.utilization             0.5                       # Layer utilization (%)
system.membus.respLayer86.occupancy            227240                       # Layer occupancy (ticks)
system.membus.respLayer86.utilization             0.5                       # Layer utilization (%)
system.membus.respLayer89.occupancy            257000                       # Layer occupancy (ticks)
system.membus.respLayer89.utilization             0.5                       # Layer utilization (%)
system.membus.respLayer90.occupancy            354154                       # Layer occupancy (ticks)
system.membus.respLayer90.utilization             0.7                       # Layer utilization (%)
system.membus.respLayer93.occupancy            284750                       # Layer occupancy (ticks)
system.membus.respLayer93.utilization             0.6                       # Layer utilization (%)
system.membus.respLayer94.occupancy            243731                       # Layer occupancy (ticks)
system.membus.respLayer94.utilization             0.5                       # Layer utilization (%)
system.membus.respLayer97.occupancy            288500                       # Layer occupancy (ticks)
system.membus.respLayer97.utilization             0.6                       # Layer utilization (%)
system.membus.respLayer98.occupancy            256976                       # Layer occupancy (ticks)
system.membus.respLayer98.utilization             0.5                       # Layer utilization (%)
system.membus.respLayer101.occupancy           280000                       # Layer occupancy (ticks)
system.membus.respLayer101.utilization            0.6                       # Layer utilization (%)
system.membus.respLayer102.occupancy           291933                       # Layer occupancy (ticks)
system.membus.respLayer102.utilization            0.6                       # Layer utilization (%)
system.membus.respLayer105.occupancy           286250                       # Layer occupancy (ticks)
system.membus.respLayer105.utilization            0.6                       # Layer utilization (%)
system.membus.respLayer106.occupancy           233484                       # Layer occupancy (ticks)
system.membus.respLayer106.utilization            0.5                       # Layer utilization (%)
system.membus.respLayer109.occupancy           280750                       # Layer occupancy (ticks)
system.membus.respLayer109.utilization            0.6                       # Layer utilization (%)
system.membus.respLayer110.occupancy           218248                       # Layer occupancy (ticks)
system.membus.respLayer110.utilization            0.4                       # Layer utilization (%)
system.membus.respLayer113.occupancy           291250                       # Layer occupancy (ticks)
system.membus.respLayer113.utilization            0.6                       # Layer utilization (%)
system.membus.respLayer114.occupancy           324171                       # Layer occupancy (ticks)
system.membus.respLayer114.utilization            0.6                       # Layer utilization (%)
system.membus.respLayer117.occupancy           284750                       # Layer occupancy (ticks)
system.membus.respLayer117.utilization            0.6                       # Layer utilization (%)
system.membus.respLayer118.occupancy           292685                       # Layer occupancy (ticks)
system.membus.respLayer118.utilization            0.6                       # Layer utilization (%)
system.membus.respLayer121.occupancy           292750                       # Layer occupancy (ticks)
system.membus.respLayer121.utilization            0.6                       # Layer utilization (%)
system.membus.respLayer122.occupancy           402343                       # Layer occupancy (ticks)
system.membus.respLayer122.utilization            0.8                       # Layer utilization (%)
system.membus.respLayer125.occupancy           278500                       # Layer occupancy (ticks)
system.membus.respLayer125.utilization            0.6                       # Layer utilization (%)
system.membus.respLayer126.occupancy           267172                       # Layer occupancy (ticks)
system.membus.respLayer126.utilization            0.5                       # Layer utilization (%)

---------- End Simulation Statistics   ----------
