
---------- Begin Simulation Statistics ----------
sim_seconds                                  0.000044                       # Number of seconds simulated
sim_ticks                                    44149500                       # Number of ticks simulated
final_tick                                   44149500                       # Number of ticks from beginning of simulation (restored from checkpoints and never reset)
sim_freq                                 1000000000000                       # Frequency of simulated ticks
host_inst_rate                                 125273                       # Simulator instruction rate (inst/s)
host_op_rate                                   134069                       # Simulator op (including micro ops) rate (op/s)
host_tick_rate                               50428899                       # Simulator tick rate (ticks/s)
host_mem_usage                                 676880                       # Number of bytes of host memory used
host_seconds                                     0.88                       # Real time elapsed on the host
sim_insts                                      109670                       # Number of instructions simulated
sim_ops                                        117373                       # Number of ops (including micro ops) simulated
system.voltage_domain.voltage                       1                       # Voltage in Volts
system.clk_domain.clock                          1000                       # Clock period in ticks
system.mem_ctrls.bytes_read::cpu0.inst          39360                       # Number of bytes read from this memory
system.mem_ctrls.bytes_read::cpu0.data          19904                       # Number of bytes read from this memory
system.mem_ctrls.bytes_read::cpu1.inst           3264                       # Number of bytes read from this memory
system.mem_ctrls.bytes_read::cpu1.data            896                       # Number of bytes read from this memory
system.mem_ctrls.bytes_read::cpu2.inst           3264                       # Number of bytes read from this memory
system.mem_ctrls.bytes_read::cpu2.data            896                       # Number of bytes read from this memory
system.mem_ctrls.bytes_read::cpu3.inst           3136                       # Number of bytes read from this memory
system.mem_ctrls.bytes_read::cpu3.data            896                       # Number of bytes read from this memory
system.mem_ctrls.bytes_read::cpu4.inst           3264                       # Number of bytes read from this memory
system.mem_ctrls.bytes_read::cpu4.data            960                       # Number of bytes read from this memory
system.mem_ctrls.bytes_read::cpu5.inst           3264                       # Number of bytes read from this memory
system.mem_ctrls.bytes_read::cpu5.data            896                       # Number of bytes read from this memory
system.mem_ctrls.bytes_read::cpu6.inst           3328                       # Number of bytes read from this memory
system.mem_ctrls.bytes_read::cpu6.data            896                       # Number of bytes read from this memory
system.mem_ctrls.bytes_read::cpu7.inst           3200                       # Number of bytes read from this memory
system.mem_ctrls.bytes_read::cpu7.data            960                       # Number of bytes read from this memory
system.mem_ctrls.bytes_read::total              88384                       # Number of bytes read from this memory
system.mem_ctrls.bytes_inst_read::cpu0.inst        39360                       # Number of instructions bytes read from this memory
system.mem_ctrls.bytes_inst_read::cpu1.inst         3264                       # Number of instructions bytes read from this memory
system.mem_ctrls.bytes_inst_read::cpu2.inst         3264                       # Number of instructions bytes read from this memory
system.mem_ctrls.bytes_inst_read::cpu3.inst         3136                       # Number of instructions bytes read from this memory
system.mem_ctrls.bytes_inst_read::cpu4.inst         3264                       # Number of instructions bytes read from this memory
system.mem_ctrls.bytes_inst_read::cpu5.inst         3264                       # Number of instructions bytes read from this memory
system.mem_ctrls.bytes_inst_read::cpu6.inst         3328                       # Number of instructions bytes read from this memory
system.mem_ctrls.bytes_inst_read::cpu7.inst         3200                       # Number of instructions bytes read from this memory
system.mem_ctrls.bytes_inst_read::total         62080                       # Number of instructions bytes read from this memory
system.mem_ctrls.bytes_written::writebacks          512                       # Number of bytes written to this memory
system.mem_ctrls.bytes_written::total             512                       # Number of bytes written to this memory
system.mem_ctrls.num_reads::cpu0.inst             615                       # Number of read requests responded to by this memory
system.mem_ctrls.num_reads::cpu0.data             311                       # Number of read requests responded to by this memory
system.mem_ctrls.num_reads::cpu1.inst              51                       # Number of read requests responded to by this memory
system.mem_ctrls.num_reads::cpu1.data              14                       # Number of read requests responded to by this memory
system.mem_ctrls.num_reads::cpu2.inst              51                       # Number of read requests responded to by this memory
system.mem_ctrls.num_reads::cpu2.data              14                       # Number of read requests responded to by this memory
system.mem_ctrls.num_reads::cpu3.inst              49                       # Number of read requests responded to by this memory
system.mem_ctrls.num_reads::cpu3.data              14                       # Number of read requests responded to by this memory
system.mem_ctrls.num_reads::cpu4.inst              51                       # Number of read requests responded to by this memory
system.mem_ctrls.num_reads::cpu4.data              15                       # Number of read requests responded to by this memory
system.mem_ctrls.num_reads::cpu5.inst              51                       # Number of read requests responded to by this memory
system.mem_ctrls.num_reads::cpu5.data              14                       # Number of read requests responded to by this memory
system.mem_ctrls.num_reads::cpu6.inst              52                       # Number of read requests responded to by this memory
system.mem_ctrls.num_reads::cpu6.data              14                       # Number of read requests responded to by this memory
system.mem_ctrls.num_reads::cpu7.inst              50                       # Number of read requests responded to by this memory
system.mem_ctrls.num_reads::cpu7.data              15                       # Number of read requests responded to by this memory
system.mem_ctrls.num_reads::total                1381                       # Number of read requests responded to by this memory
system.mem_ctrls.num_writes::writebacks             8                       # Number of write requests responded to by this memory
system.mem_ctrls.num_writes::total                  8                       # Number of write requests responded to by this memory
system.mem_ctrls.bw_read::cpu0.inst         891516325                       # Total read bandwidth from this memory (bytes/s)
system.mem_ctrls.bw_read::cpu0.data         450831833                       # Total read bandwidth from this memory (bytes/s)
system.mem_ctrls.bw_read::cpu1.inst          73930622                       # Total read bandwidth from this memory (bytes/s)
system.mem_ctrls.bw_read::cpu1.data          20294681                       # Total read bandwidth from this memory (bytes/s)
system.mem_ctrls.bw_read::cpu2.inst          73930622                       # Total read bandwidth from this memory (bytes/s)
system.mem_ctrls.bw_read::cpu2.data          20294681                       # Total read bandwidth from this memory (bytes/s)
system.mem_ctrls.bw_read::cpu3.inst          71031382                       # Total read bandwidth from this memory (bytes/s)
system.mem_ctrls.bw_read::cpu3.data          20294681                       # Total read bandwidth from this memory (bytes/s)
system.mem_ctrls.bw_read::cpu4.inst          73930622                       # Total read bandwidth from this memory (bytes/s)
system.mem_ctrls.bw_read::cpu4.data          21744301                       # Total read bandwidth from this memory (bytes/s)
system.mem_ctrls.bw_read::cpu5.inst          73930622                       # Total read bandwidth from this memory (bytes/s)
system.mem_ctrls.bw_read::cpu5.data          20294681                       # Total read bandwidth from this memory (bytes/s)
system.mem_ctrls.bw_read::cpu6.inst          75380242                       # Total read bandwidth from this memory (bytes/s)
system.mem_ctrls.bw_read::cpu6.data          20294681                       # Total read bandwidth from this memory (bytes/s)
system.mem_ctrls.bw_read::cpu7.inst          72481002                       # Total read bandwidth from this memory (bytes/s)
system.mem_ctrls.bw_read::cpu7.data          21744301                       # Total read bandwidth from this memory (bytes/s)
system.mem_ctrls.bw_read::total            2001925277                       # Total read bandwidth from this memory (bytes/s)
system.mem_ctrls.bw_inst_read::cpu0.inst    891516325                       # Instruction read bandwidth from this memory (bytes/s)
system.mem_ctrls.bw_inst_read::cpu1.inst     73930622                       # Instruction read bandwidth from this memory (bytes/s)
system.mem_ctrls.bw_inst_read::cpu2.inst     73930622                       # Instruction read bandwidth from this memory (bytes/s)
system.mem_ctrls.bw_inst_read::cpu3.inst     71031382                       # Instruction read bandwidth from this memory (bytes/s)
system.mem_ctrls.bw_inst_read::cpu4.inst     73930622                       # Instruction read bandwidth from this memory (bytes/s)
system.mem_ctrls.bw_inst_read::cpu5.inst     73930622                       # Instruction read bandwidth from this memory (bytes/s)
system.mem_ctrls.bw_inst_read::cpu6.inst     75380242                       # Instruction read bandwidth from this memory (bytes/s)
system.mem_ctrls.bw_inst_read::cpu7.inst     72481002                       # Instruction read bandwidth from this memory (bytes/s)
system.mem_ctrls.bw_inst_read::total       1406131440                       # Instruction read bandwidth from this memory (bytes/s)
system.mem_ctrls.bw_write::writebacks        11596960                       # Write bandwidth from this memory (bytes/s)
system.mem_ctrls.bw_write::total             11596960                       # Write bandwidth from this memory (bytes/s)
system.mem_ctrls.bw_total::writebacks        11596960                       # Total bandwidth to/from this memory (bytes/s)
system.mem_ctrls.bw_total::cpu0.inst        891516325                       # Total bandwidth to/from this memory (bytes/s)
system.mem_ctrls.bw_total::cpu0.data        450831833                       # Total bandwidth to/from this memory (bytes/s)
system.mem_ctrls.bw_total::cpu1.inst         73930622                       # Total bandwidth to/from this memory (bytes/s)
system.mem_ctrls.bw_total::cpu1.data         20294681                       # Total bandwidth to/from this memory (bytes/s)
system.mem_ctrls.bw_total::cpu2.inst         73930622                       # Total bandwidth to/from this memory (bytes/s)
system.mem_ctrls.bw_total::cpu2.data         20294681                       # Total bandwidth to/from this memory (bytes/s)
system.mem_ctrls.bw_total::cpu3.inst         71031382                       # Total bandwidth to/from this memory (bytes/s)
system.mem_ctrls.bw_total::cpu3.data         20294681                       # Total bandwidth to/from this memory (bytes/s)
system.mem_ctrls.bw_total::cpu4.inst         73930622                       # Total bandwidth to/from this memory (bytes/s)
system.mem_ctrls.bw_total::cpu4.data         21744301                       # Total bandwidth to/from this memory (bytes/s)
system.mem_ctrls.bw_total::cpu5.inst         73930622                       # Total bandwidth to/from this memory (bytes/s)
system.mem_ctrls.bw_total::cpu5.data         20294681                       # Total bandwidth to/from this memory (bytes/s)
system.mem_ctrls.bw_total::cpu6.inst         75380242                       # Total bandwidth to/from this memory (bytes/s)
system.mem_ctrls.bw_total::cpu6.data         20294681                       # Total bandwidth to/from this memory (bytes/s)
system.mem_ctrls.bw_total::cpu7.inst         72481002                       # Total bandwidth to/from this memory (bytes/s)
system.mem_ctrls.bw_total::cpu7.data         21744301                       # Total bandwidth to/from this memory (bytes/s)
system.mem_ctrls.bw_total::total           2013522237                       # Total bandwidth to/from this memory (bytes/s)
system.mem_ctrls.readReqs                        1382                       # Number of read requests accepted
system.mem_ctrls.writeReqs                          8                       # Number of write requests accepted
system.mem_ctrls.readBursts                      1382                       # Number of DRAM read bursts, including those serviced by the write queue
system.mem_ctrls.writeBursts                        8                       # Number of DRAM write bursts, including those merged in the write queue
system.mem_ctrls.bytesReadDRAM                  88448                       # Total number of bytes read from DRAM
system.mem_ctrls.bytesReadWrQ                       0                       # Total number of bytes read from write queue
system.mem_ctrls.bytesWritten                       0                       # Total number of bytes written to DRAM
system.mem_ctrls.bytesReadSys                   88448                       # Total read bytes from the system interface side
system.mem_ctrls.bytesWrittenSys                  512                       # Total written bytes from the system interface side
system.mem_ctrls.servicedByWrQ                      0                       # Number of DRAM read bursts serviced by the write queue
system.mem_ctrls.mergedWrBursts                     0                       # Number of DRAM write bursts merged with an existing one
system.mem_ctrls.neitherReadNorWriteReqs            7                       # Number of requests that are neither read nor write
system.mem_ctrls.perBankRdBursts::0               203                       # Per bank write bursts
system.mem_ctrls.perBankRdBursts::1               355                       # Per bank write bursts
system.mem_ctrls.perBankRdBursts::2               213                       # Per bank write bursts
system.mem_ctrls.perBankRdBursts::3               162                       # Per bank write bursts
system.mem_ctrls.perBankRdBursts::4                50                       # Per bank write bursts
system.mem_ctrls.perBankRdBursts::5                56                       # Per bank write bursts
system.mem_ctrls.perBankRdBursts::6               117                       # Per bank write bursts
system.mem_ctrls.perBankRdBursts::7                31                       # Per bank write bursts
system.mem_ctrls.perBankRdBursts::8                16                       # Per bank write bursts
system.mem_ctrls.perBankRdBursts::9                 8                       # Per bank write bursts
system.mem_ctrls.perBankRdBursts::10                0                       # Per bank write bursts
system.mem_ctrls.perBankRdBursts::11               15                       # Per bank write bursts
system.mem_ctrls.perBankRdBursts::12                8                       # Per bank write bursts
system.mem_ctrls.perBankRdBursts::13               40                       # Per bank write bursts
system.mem_ctrls.perBankRdBursts::14               39                       # Per bank write bursts
system.mem_ctrls.perBankRdBursts::15               69                       # Per bank write bursts
system.mem_ctrls.perBankWrBursts::0                 0                       # Per bank write bursts
system.mem_ctrls.perBankWrBursts::1                 0                       # Per bank write bursts
system.mem_ctrls.perBankWrBursts::2                 0                       # Per bank write bursts
system.mem_ctrls.perBankWrBursts::3                 0                       # Per bank write bursts
system.mem_ctrls.perBankWrBursts::4                 0                       # Per bank write bursts
system.mem_ctrls.perBankWrBursts::5                 0                       # Per bank write bursts
system.mem_ctrls.perBankWrBursts::6                 0                       # Per bank write bursts
system.mem_ctrls.perBankWrBursts::7                 0                       # Per bank write bursts
system.mem_ctrls.perBankWrBursts::8                 0                       # Per bank write bursts
system.mem_ctrls.perBankWrBursts::9                 0                       # Per bank write bursts
system.mem_ctrls.perBankWrBursts::10                0                       # Per bank write bursts
system.mem_ctrls.perBankWrBursts::11                0                       # Per bank write bursts
system.mem_ctrls.perBankWrBursts::12                0                       # Per bank write bursts
system.mem_ctrls.perBankWrBursts::13                0                       # Per bank write bursts
system.mem_ctrls.perBankWrBursts::14                0                       # Per bank write bursts
system.mem_ctrls.perBankWrBursts::15                0                       # Per bank write bursts
system.mem_ctrls.numRdRetry                         0                       # Number of times read queue was full causing retry
system.mem_ctrls.numWrRetry                         0                       # Number of times write queue was full causing retry
system.mem_ctrls.totGap                      44147000                       # Total gap between requests
system.mem_ctrls.readPktSize::0                     0                       # Read request sizes (log2)
system.mem_ctrls.readPktSize::1                     0                       # Read request sizes (log2)
system.mem_ctrls.readPktSize::2                     0                       # Read request sizes (log2)
system.mem_ctrls.readPktSize::3                     0                       # Read request sizes (log2)
system.mem_ctrls.readPktSize::4                     0                       # Read request sizes (log2)
system.mem_ctrls.readPktSize::5                     0                       # Read request sizes (log2)
system.mem_ctrls.readPktSize::6                  1382                       # Read request sizes (log2)
system.mem_ctrls.writePktSize::0                    0                       # Write request sizes (log2)
system.mem_ctrls.writePktSize::1                    0                       # Write request sizes (log2)
system.mem_ctrls.writePktSize::2                    0                       # Write request sizes (log2)
system.mem_ctrls.writePktSize::3                    0                       # Write request sizes (log2)
system.mem_ctrls.writePktSize::4                    0                       # Write request sizes (log2)
system.mem_ctrls.writePktSize::5                    0                       # Write request sizes (log2)
system.mem_ctrls.writePktSize::6                    8                       # Write request sizes (log2)
system.mem_ctrls.rdQLenPdf::0                     559                       # What read queue length does an incoming req see
system.mem_ctrls.rdQLenPdf::1                     272                       # What read queue length does an incoming req see
system.mem_ctrls.rdQLenPdf::2                     106                       # What read queue length does an incoming req see
system.mem_ctrls.rdQLenPdf::3                      62                       # What read queue length does an incoming req see
system.mem_ctrls.rdQLenPdf::4                      53                       # What read queue length does an incoming req see
system.mem_ctrls.rdQLenPdf::5                      57                       # What read queue length does an incoming req see
system.mem_ctrls.rdQLenPdf::6                      52                       # What read queue length does an incoming req see
system.mem_ctrls.rdQLenPdf::7                      50                       # What read queue length does an incoming req see
system.mem_ctrls.rdQLenPdf::8                      64                       # What read queue length does an incoming req see
system.mem_ctrls.rdQLenPdf::9                      48                       # What read queue length does an incoming req see
system.mem_ctrls.rdQLenPdf::10                     26                       # What read queue length does an incoming req see
system.mem_ctrls.rdQLenPdf::11                     20                       # What read queue length does an incoming req see
system.mem_ctrls.rdQLenPdf::12                      7                       # What read queue length does an incoming req see
system.mem_ctrls.rdQLenPdf::13                      5                       # What read queue length does an incoming req see
system.mem_ctrls.rdQLenPdf::14                      1                       # What read queue length does an incoming req see
system.mem_ctrls.rdQLenPdf::15                      0                       # What read queue length does an incoming req see
system.mem_ctrls.rdQLenPdf::16                      0                       # What read queue length does an incoming req see
system.mem_ctrls.rdQLenPdf::17                      0                       # What read queue length does an incoming req see
system.mem_ctrls.rdQLenPdf::18                      0                       # What read queue length does an incoming req see
system.mem_ctrls.rdQLenPdf::19                      0                       # What read queue length does an incoming req see
system.mem_ctrls.rdQLenPdf::20                      0                       # What read queue length does an incoming req see
system.mem_ctrls.rdQLenPdf::21                      0                       # What read queue length does an incoming req see
system.mem_ctrls.rdQLenPdf::22                      0                       # What read queue length does an incoming req see
system.mem_ctrls.rdQLenPdf::23                      0                       # What read queue length does an incoming req see
system.mem_ctrls.rdQLenPdf::24                      0                       # What read queue length does an incoming req see
system.mem_ctrls.rdQLenPdf::25                      0                       # What read queue length does an incoming req see
system.mem_ctrls.rdQLenPdf::26                      0                       # What read queue length does an incoming req see
system.mem_ctrls.rdQLenPdf::27                      0                       # What read queue length does an incoming req see
system.mem_ctrls.rdQLenPdf::28                      0                       # What read queue length does an incoming req see
system.mem_ctrls.rdQLenPdf::29                      0                       # What read queue length does an incoming req see
system.mem_ctrls.rdQLenPdf::30                      0                       # What read queue length does an incoming req see
system.mem_ctrls.rdQLenPdf::31                      0                       # What read queue length does an incoming req see
system.mem_ctrls.wrQLenPdf::0                       1                       # What write queue length does an incoming req see
system.mem_ctrls.wrQLenPdf::1                       1                       # What write queue length does an incoming req see
system.mem_ctrls.wrQLenPdf::2                       1                       # What write queue length does an incoming req see
system.mem_ctrls.wrQLenPdf::3                       1                       # What write queue length does an incoming req see
system.mem_ctrls.wrQLenPdf::4                       1                       # What write queue length does an incoming req see
system.mem_ctrls.wrQLenPdf::5                       1                       # What write queue length does an incoming req see
system.mem_ctrls.wrQLenPdf::6                       1                       # What write queue length does an incoming req see
system.mem_ctrls.wrQLenPdf::7                       1                       # What write queue length does an incoming req see
system.mem_ctrls.wrQLenPdf::8                       0                       # What write queue length does an incoming req see
system.mem_ctrls.wrQLenPdf::9                       0                       # What write queue length does an incoming req see
system.mem_ctrls.wrQLenPdf::10                      0                       # What write queue length does an incoming req see
system.mem_ctrls.wrQLenPdf::11                      0                       # What write queue length does an incoming req see
system.mem_ctrls.wrQLenPdf::12                      0                       # What write queue length does an incoming req see
system.mem_ctrls.wrQLenPdf::13                      0                       # What write queue length does an incoming req see
system.mem_ctrls.wrQLenPdf::14                      0                       # What write queue length does an incoming req see
system.mem_ctrls.wrQLenPdf::15                      0                       # What write queue length does an incoming req see
system.mem_ctrls.wrQLenPdf::16                      0                       # What write queue length does an incoming req see
system.mem_ctrls.wrQLenPdf::17                      0                       # What write queue length does an incoming req see
system.mem_ctrls.wrQLenPdf::18                      0                       # What write queue length does an incoming req see
system.mem_ctrls.wrQLenPdf::19                      0                       # What write queue length does an incoming req see
system.mem_ctrls.wrQLenPdf::20                      0                       # What write queue length does an incoming req see
system.mem_ctrls.wrQLenPdf::21                      0                       # What write queue length does an incoming req see
system.mem_ctrls.wrQLenPdf::22                      0                       # What write queue length does an incoming req see
system.mem_ctrls.wrQLenPdf::23                      0                       # What write queue length does an incoming req see
system.mem_ctrls.wrQLenPdf::24                      0                       # What write queue length does an incoming req see
system.mem_ctrls.wrQLenPdf::25                      0                       # What write queue length does an incoming req see
system.mem_ctrls.wrQLenPdf::26                      0                       # What write queue length does an incoming req see
system.mem_ctrls.wrQLenPdf::27                      0                       # What write queue length does an incoming req see
system.mem_ctrls.wrQLenPdf::28                      0                       # What write queue length does an incoming req see
system.mem_ctrls.wrQLenPdf::29                      0                       # What write queue length does an incoming req see
system.mem_ctrls.wrQLenPdf::30                      0                       # What write queue length does an incoming req see
system.mem_ctrls.wrQLenPdf::31                      0                       # What write queue length does an incoming req see
system.mem_ctrls.wrQLenPdf::32                      0                       # What write queue length does an incoming req see
system.mem_ctrls.wrQLenPdf::33                      0                       # What write queue length does an incoming req see
system.mem_ctrls.wrQLenPdf::34                      0                       # What write queue length does an incoming req see
system.mem_ctrls.wrQLenPdf::35                      0                       # What write queue length does an incoming req see
system.mem_ctrls.wrQLenPdf::36                      0                       # What write queue length does an incoming req see
system.mem_ctrls.wrQLenPdf::37                      0                       # What write queue length does an incoming req see
system.mem_ctrls.wrQLenPdf::38                      0                       # What write queue length does an incoming req see
system.mem_ctrls.wrQLenPdf::39                      0                       # What write queue length does an incoming req see
system.mem_ctrls.wrQLenPdf::40                      0                       # What write queue length does an incoming req see
system.mem_ctrls.wrQLenPdf::41                      0                       # What write queue length does an incoming req see
system.mem_ctrls.wrQLenPdf::42                      0                       # What write queue length does an incoming req see
system.mem_ctrls.wrQLenPdf::43                      0                       # What write queue length does an incoming req see
system.mem_ctrls.wrQLenPdf::44                      0                       # What write queue length does an incoming req see
system.mem_ctrls.wrQLenPdf::45                      0                       # What write queue length does an incoming req see
system.mem_ctrls.wrQLenPdf::46                      0                       # What write queue length does an incoming req see
system.mem_ctrls.wrQLenPdf::47                      0                       # What write queue length does an incoming req see
system.mem_ctrls.wrQLenPdf::48                      0                       # What write queue length does an incoming req see
system.mem_ctrls.wrQLenPdf::49                      0                       # What write queue length does an incoming req see
system.mem_ctrls.wrQLenPdf::50                      0                       # What write queue length does an incoming req see
system.mem_ctrls.wrQLenPdf::51                      0                       # What write queue length does an incoming req see
system.mem_ctrls.wrQLenPdf::52                      0                       # What write queue length does an incoming req see
system.mem_ctrls.wrQLenPdf::53                      0                       # What write queue length does an incoming req see
system.mem_ctrls.wrQLenPdf::54                      0                       # What write queue length does an incoming req see
system.mem_ctrls.wrQLenPdf::55                      0                       # What write queue length does an incoming req see
system.mem_ctrls.wrQLenPdf::56                      0                       # What write queue length does an incoming req see
system.mem_ctrls.wrQLenPdf::57                      0                       # What write queue length does an incoming req see
system.mem_ctrls.wrQLenPdf::58                      0                       # What write queue length does an incoming req see
system.mem_ctrls.wrQLenPdf::59                      0                       # What write queue length does an incoming req see
system.mem_ctrls.wrQLenPdf::60                      0                       # What write queue length does an incoming req see
system.mem_ctrls.wrQLenPdf::61                      0                       # What write queue length does an incoming req see
system.mem_ctrls.wrQLenPdf::62                      0                       # What write queue length does an incoming req see
system.mem_ctrls.wrQLenPdf::63                      0                       # What write queue length does an incoming req see
system.mem_ctrls.bytesPerActivate::samples          290                       # Bytes accessed per row activation
system.mem_ctrls.bytesPerActivate::mean    295.062069                       # Bytes accessed per row activation
system.mem_ctrls.bytesPerActivate::gmean   167.210417                       # Bytes accessed per row activation
system.mem_ctrls.bytesPerActivate::stdev   329.513266                       # Bytes accessed per row activation
system.mem_ctrls.bytesPerActivate::0-127          130     44.83%     44.83% # Bytes accessed per row activation
system.mem_ctrls.bytesPerActivate::128-255           53     18.28%     63.10% # Bytes accessed per row activation
system.mem_ctrls.bytesPerActivate::256-383           28      9.66%     72.76% # Bytes accessed per row activation
system.mem_ctrls.bytesPerActivate::384-511           18      6.21%     78.97% # Bytes accessed per row activation
system.mem_ctrls.bytesPerActivate::512-639           11      3.79%     82.76% # Bytes accessed per row activation
system.mem_ctrls.bytesPerActivate::640-767            6      2.07%     84.83% # Bytes accessed per row activation
system.mem_ctrls.bytesPerActivate::768-895            5      1.72%     86.55% # Bytes accessed per row activation
system.mem_ctrls.bytesPerActivate::896-1023            5      1.72%     88.28% # Bytes accessed per row activation
system.mem_ctrls.bytesPerActivate::1024-1151           34     11.72%    100.00% # Bytes accessed per row activation
system.mem_ctrls.bytesPerActivate::total          290                       # Bytes accessed per row activation
system.mem_ctrls.totQLat                     27677500                       # Total ticks spent queuing
system.mem_ctrls.totMemAccLat                53590000                       # Total ticks spent from burst creation until serviced by the DRAM
system.mem_ctrls.totBusLat                    6910000                       # Total ticks spent in databus transfers
system.mem_ctrls.avgQLat                     20027.13                       # Average queueing delay per DRAM burst
system.mem_ctrls.avgBusLat                    5000.00                       # Average bus latency per DRAM burst
system.mem_ctrls.avgMemAccLat                38777.13                       # Average memory access latency per DRAM burst
system.mem_ctrls.avgRdBW                      2003.37                       # Average DRAM read bandwidth in MiByte/s
system.mem_ctrls.avgWrBW                         0.00                       # Average achieved write bandwidth in MiByte/s
system.mem_ctrls.avgRdBWSys                   2003.37                       # Average system read bandwidth in MiByte/s
system.mem_ctrls.avgWrBWSys                     11.60                       # Average system write bandwidth in MiByte/s
system.mem_ctrls.peakBW                      12800.00                       # Theoretical peak bandwidth in MiByte/s
system.mem_ctrls.busUtil                        15.65                       # Data bus utilization in percentage
system.mem_ctrls.busUtilRead                    15.65                       # Data bus utilization in percentage for reads
system.mem_ctrls.busUtilWrite                    0.00                       # Data bus utilization in percentage for writes
system.mem_ctrls.avgRdQLen                       2.16                       # Average read queue length when enqueuing
system.mem_ctrls.avgWrQLen                       1.46                       # Average write queue length when enqueuing
system.mem_ctrls.readRowHits                     1081                       # Number of row buffer hits during reads
system.mem_ctrls.writeRowHits                       0                       # Number of row buffer hits during writes
system.mem_ctrls.readRowHitRate                 78.22                       # Row buffer hit rate for reads
system.mem_ctrls.writeRowHitRate                 0.00                       # Row buffer hit rate for writes
system.mem_ctrls.avgGap                      31760.43                       # Average gap between requests
system.mem_ctrls.pageHitRate                    77.77                       # Row buffer hit rate, read and write combined
system.mem_ctrls_0.actEnergy                  1685880                       # Energy for activate commands per rank (pJ)
system.mem_ctrls_0.preEnergy                   919875                       # Energy for precharge commands per rank (pJ)
system.mem_ctrls_0.readEnergy                 7129200                       # Energy for read commands per rank (pJ)
system.mem_ctrls_0.writeEnergy                      0                       # Energy for write commands per rank (pJ)
system.mem_ctrls_0.refreshEnergy              2542800                       # Energy for refresh commands per rank (pJ)
system.mem_ctrls_0.actBackEnergy             26596485                       # Energy for active background per rank (pJ)
system.mem_ctrls_0.preBackEnergy               191250                       # Energy for precharge background per rank (pJ)
system.mem_ctrls_0.totalEnergy               39065490                       # Total energy per rank (pJ)
system.mem_ctrls_0.averagePower            996.505070                       # Core power per rank (mW)
system.mem_ctrls_0.memoryStateTime::IDLE       193750                       # Time in different power states
system.mem_ctrls_0.memoryStateTime::REF       1300000                       # Time in different power states
system.mem_ctrls_0.memoryStateTime::PRE_PDN            0                       # Time in different power states
system.mem_ctrls_0.memoryStateTime::ACT      37721500                       # Time in different power states
system.mem_ctrls_0.memoryStateTime::ACT_PDN            0                       # Time in different power states
system.mem_ctrls_1.actEnergy                   211680                       # Energy for activate commands per rank (pJ)
system.mem_ctrls_1.preEnergy                   115500                       # Energy for precharge commands per rank (pJ)
system.mem_ctrls_1.readEnergy                 1107600                       # Energy for read commands per rank (pJ)
system.mem_ctrls_1.writeEnergy                      0                       # Energy for write commands per rank (pJ)
system.mem_ctrls_1.refreshEnergy              2542800                       # Energy for refresh commands per rank (pJ)
system.mem_ctrls_1.actBackEnergy             22226580                       # Energy for active background per rank (pJ)
system.mem_ctrls_1.preBackEnergy              4017750                       # Energy for precharge background per rank (pJ)
system.mem_ctrls_1.totalEnergy               30221910                       # Total energy per rank (pJ)
system.mem_ctrls_1.averagePower            771.139221                       # Core power per rank (mW)
system.mem_ctrls_1.memoryStateTime::IDLE      6664000                       # Time in different power states
system.mem_ctrls_1.memoryStateTime::REF       1300000                       # Time in different power states
system.mem_ctrls_1.memoryStateTime::PRE_PDN            0                       # Time in different power states
system.mem_ctrls_1.memoryStateTime::ACT      31348000                       # Time in different power states
system.mem_ctrls_1.memoryStateTime::ACT_PDN            0                       # Time in different power states
system.cpu0.branchPred.lookups                   7323                       # Number of BP lookups
system.cpu0.branchPred.condPredicted             5164                       # Number of conditional branches predicted
system.cpu0.branchPred.condIncorrect             1157                       # Number of conditional branches incorrect
system.cpu0.branchPred.BTBLookups                2223                       # Number of BTB lookups
system.cpu0.branchPred.BTBHits                   1493                       # Number of BTB hits
system.cpu0.branchPred.BTBCorrect                   0                       # Number of correct BTB predictions (this stat may not work properly.
system.cpu0.branchPred.BTBHitPct            67.161493                       # BTB Hit Percentage
system.cpu0.branchPred.usedRAS                    753                       # Number of times the RAS was used to get a target.
system.cpu0.branchPred.RASInCorrect                 7                       # Number of incorrect RAS predictions.
system.cpu_voltage_domain.voltage                   1                       # Voltage in Volts
system.cpu_clk_domain.clock                       500                       # Clock period in ticks
system.cpu0.dstage2_mmu.stage2_tlb.walker.walks            0                       # Table walker walks requested
system.cpu0.dstage2_mmu.stage2_tlb.walker.walkRequestOrigin_Requested::Data            0                       # Table walker requests started/completed, data/inst
system.cpu0.dstage2_mmu.stage2_tlb.walker.walkRequestOrigin_Requested::Inst            0                       # Table walker requests started/completed, data/inst
system.cpu0.dstage2_mmu.stage2_tlb.walker.walkRequestOrigin_Requested::total            0                       # Table walker requests started/completed, data/inst
system.cpu0.dstage2_mmu.stage2_tlb.walker.walkRequestOrigin_Completed::Data            0                       # Table walker requests started/completed, data/inst
system.cpu0.dstage2_mmu.stage2_tlb.walker.walkRequestOrigin_Completed::Inst            0                       # Table walker requests started/completed, data/inst
system.cpu0.dstage2_mmu.stage2_tlb.walker.walkRequestOrigin_Completed::total            0                       # Table walker requests started/completed, data/inst
system.cpu0.dstage2_mmu.stage2_tlb.walker.walkRequestOrigin::total            0                       # Table walker requests started/completed, data/inst
system.cpu0.dstage2_mmu.stage2_tlb.inst_hits            0                       # ITB inst hits
system.cpu0.dstage2_mmu.stage2_tlb.inst_misses            0                       # ITB inst misses
system.cpu0.dstage2_mmu.stage2_tlb.read_hits            0                       # DTB read hits
system.cpu0.dstage2_mmu.stage2_tlb.read_misses            0                       # DTB read misses
system.cpu0.dstage2_mmu.stage2_tlb.write_hits            0                       # DTB write hits
system.cpu0.dstage2_mmu.stage2_tlb.write_misses            0                       # DTB write misses
system.cpu0.dstage2_mmu.stage2_tlb.flush_tlb            0                       # Number of times complete TLB was flushed
system.cpu0.dstage2_mmu.stage2_tlb.flush_tlb_mva            0                       # Number of times TLB was flushed by MVA
system.cpu0.dstage2_mmu.stage2_tlb.flush_tlb_mva_asid            0                       # Number of times TLB was flushed by MVA & ASID
system.cpu0.dstage2_mmu.stage2_tlb.flush_tlb_asid            0                       # Number of times TLB was flushed by ASID
system.cpu0.dstage2_mmu.stage2_tlb.flush_entries            0                       # Number of entries that have been flushed from TLB
system.cpu0.dstage2_mmu.stage2_tlb.align_faults            0                       # Number of TLB faults due to alignment restrictions
system.cpu0.dstage2_mmu.stage2_tlb.prefetch_faults            0                       # Number of TLB faults due to prefetch
system.cpu0.dstage2_mmu.stage2_tlb.domain_faults            0                       # Number of TLB faults due to domain restrictions
system.cpu0.dstage2_mmu.stage2_tlb.perms_faults            0                       # Number of TLB faults due to permissions restrictions
system.cpu0.dstage2_mmu.stage2_tlb.read_accesses            0                       # DTB read accesses
system.cpu0.dstage2_mmu.stage2_tlb.write_accesses            0                       # DTB write accesses
system.cpu0.dstage2_mmu.stage2_tlb.inst_accesses            0                       # ITB inst accesses
system.cpu0.dstage2_mmu.stage2_tlb.hits             0                       # DTB hits
system.cpu0.dstage2_mmu.stage2_tlb.misses            0                       # DTB misses
system.cpu0.dstage2_mmu.stage2_tlb.accesses            0                       # DTB accesses
system.cpu0.dtb.walker.walks                        0                       # Table walker walks requested
system.cpu0.dtb.walker.walkRequestOrigin_Requested::Data            0                       # Table walker requests started/completed, data/inst
system.cpu0.dtb.walker.walkRequestOrigin_Requested::Inst            0                       # Table walker requests started/completed, data/inst
system.cpu0.dtb.walker.walkRequestOrigin_Requested::total            0                       # Table walker requests started/completed, data/inst
system.cpu0.dtb.walker.walkRequestOrigin_Completed::Data            0                       # Table walker requests started/completed, data/inst
system.cpu0.dtb.walker.walkRequestOrigin_Completed::Inst            0                       # Table walker requests started/completed, data/inst
system.cpu0.dtb.walker.walkRequestOrigin_Completed::total            0                       # Table walker requests started/completed, data/inst
system.cpu0.dtb.walker.walkRequestOrigin::total            0                       # Table walker requests started/completed, data/inst
system.cpu0.dtb.inst_hits                           0                       # ITB inst hits
system.cpu0.dtb.inst_misses                         0                       # ITB inst misses
system.cpu0.dtb.read_hits                           0                       # DTB read hits
system.cpu0.dtb.read_misses                         0                       # DTB read misses
system.cpu0.dtb.write_hits                          0                       # DTB write hits
system.cpu0.dtb.write_misses                        0                       # DTB write misses
system.cpu0.dtb.flush_tlb                           0                       # Number of times complete TLB was flushed
system.cpu0.dtb.flush_tlb_mva                       0                       # Number of times TLB was flushed by MVA
system.cpu0.dtb.flush_tlb_mva_asid                  0                       # Number of times TLB was flushed by MVA & ASID
system.cpu0.dtb.flush_tlb_asid                      0                       # Number of times TLB was flushed by ASID
system.cpu0.dtb.flush_entries                       0                       # Number of entries that have been flushed from TLB
system.cpu0.dtb.align_faults                        0                       # Number of TLB faults due to alignment restrictions
system.cpu0.dtb.prefetch_faults                     0                       # Number of TLB faults due to prefetch
system.cpu0.dtb.domain_faults                       0                       # Number of TLB faults due to domain restrictions
system.cpu0.dtb.perms_faults                        0                       # Number of TLB faults due to permissions restrictions
system.cpu0.dtb.read_accesses                       0                       # DTB read accesses
system.cpu0.dtb.write_accesses                      0                       # DTB write accesses
system.cpu0.dtb.inst_accesses                       0                       # ITB inst accesses
system.cpu0.dtb.hits                                0                       # DTB hits
system.cpu0.dtb.misses                              0                       # DTB misses
system.cpu0.dtb.accesses                            0                       # DTB accesses
system.cpu0.istage2_mmu.stage2_tlb.walker.walks            0                       # Table walker walks requested
system.cpu0.istage2_mmu.stage2_tlb.walker.walkRequestOrigin_Requested::Data            0                       # Table walker requests started/completed, data/inst
system.cpu0.istage2_mmu.stage2_tlb.walker.walkRequestOrigin_Requested::Inst            0                       # Table walker requests started/completed, data/inst
system.cpu0.istage2_mmu.stage2_tlb.walker.walkRequestOrigin_Requested::total            0                       # Table walker requests started/completed, data/inst
system.cpu0.istage2_mmu.stage2_tlb.walker.walkRequestOrigin_Completed::Data            0                       # Table walker requests started/completed, data/inst
system.cpu0.istage2_mmu.stage2_tlb.walker.walkRequestOrigin_Completed::Inst            0                       # Table walker requests started/completed, data/inst
system.cpu0.istage2_mmu.stage2_tlb.walker.walkRequestOrigin_Completed::total            0                       # Table walker requests started/completed, data/inst
system.cpu0.istage2_mmu.stage2_tlb.walker.walkRequestOrigin::total            0                       # Table walker requests started/completed, data/inst
system.cpu0.istage2_mmu.stage2_tlb.inst_hits            0                       # ITB inst hits
system.cpu0.istage2_mmu.stage2_tlb.inst_misses            0                       # ITB inst misses
system.cpu0.istage2_mmu.stage2_tlb.read_hits            0                       # DTB read hits
system.cpu0.istage2_mmu.stage2_tlb.read_misses            0                       # DTB read misses
system.cpu0.istage2_mmu.stage2_tlb.write_hits            0                       # DTB write hits
system.cpu0.istage2_mmu.stage2_tlb.write_misses            0                       # DTB write misses
system.cpu0.istage2_mmu.stage2_tlb.flush_tlb            0                       # Number of times complete TLB was flushed
system.cpu0.istage2_mmu.stage2_tlb.flush_tlb_mva            0                       # Number of times TLB was flushed by MVA
system.cpu0.istage2_mmu.stage2_tlb.flush_tlb_mva_asid            0                       # Number of times TLB was flushed by MVA & ASID
system.cpu0.istage2_mmu.stage2_tlb.flush_tlb_asid            0                       # Number of times TLB was flushed by ASID
system.cpu0.istage2_mmu.stage2_tlb.flush_entries            0                       # Number of entries that have been flushed from TLB
system.cpu0.istage2_mmu.stage2_tlb.align_faults            0                       # Number of TLB faults due to alignment restrictions
system.cpu0.istage2_mmu.stage2_tlb.prefetch_faults            0                       # Number of TLB faults due to prefetch
system.cpu0.istage2_mmu.stage2_tlb.domain_faults            0                       # Number of TLB faults due to domain restrictions
system.cpu0.istage2_mmu.stage2_tlb.perms_faults            0                       # Number of TLB faults due to permissions restrictions
system.cpu0.istage2_mmu.stage2_tlb.read_accesses            0                       # DTB read accesses
system.cpu0.istage2_mmu.stage2_tlb.write_accesses            0                       # DTB write accesses
system.cpu0.istage2_mmu.stage2_tlb.inst_accesses            0                       # ITB inst accesses
system.cpu0.istage2_mmu.stage2_tlb.hits             0                       # DTB hits
system.cpu0.istage2_mmu.stage2_tlb.misses            0                       # DTB misses
system.cpu0.istage2_mmu.stage2_tlb.accesses            0                       # DTB accesses
system.cpu0.itb.walker.walks                        0                       # Table walker walks requested
system.cpu0.itb.walker.walkRequestOrigin_Requested::Data            0                       # Table walker requests started/completed, data/inst
system.cpu0.itb.walker.walkRequestOrigin_Requested::Inst            0                       # Table walker requests started/completed, data/inst
system.cpu0.itb.walker.walkRequestOrigin_Requested::total            0                       # Table walker requests started/completed, data/inst
system.cpu0.itb.walker.walkRequestOrigin_Completed::Data            0                       # Table walker requests started/completed, data/inst
system.cpu0.itb.walker.walkRequestOrigin_Completed::Inst            0                       # Table walker requests started/completed, data/inst
system.cpu0.itb.walker.walkRequestOrigin_Completed::total            0                       # Table walker requests started/completed, data/inst
system.cpu0.itb.walker.walkRequestOrigin::total            0                       # Table walker requests started/completed, data/inst
system.cpu0.itb.inst_hits                           0                       # ITB inst hits
system.cpu0.itb.inst_misses                         0                       # ITB inst misses
system.cpu0.itb.read_hits                           0                       # DTB read hits
system.cpu0.itb.read_misses                         0                       # DTB read misses
system.cpu0.itb.write_hits                          0                       # DTB write hits
system.cpu0.itb.write_misses                        0                       # DTB write misses
system.cpu0.itb.flush_tlb                           0                       # Number of times complete TLB was flushed
system.cpu0.itb.flush_tlb_mva                       0                       # Number of times TLB was flushed by MVA
system.cpu0.itb.flush_tlb_mva_asid                  0                       # Number of times TLB was flushed by MVA & ASID
system.cpu0.itb.flush_tlb_asid                      0                       # Number of times TLB was flushed by ASID
system.cpu0.itb.flush_entries                       0                       # Number of entries that have been flushed from TLB
system.cpu0.itb.align_faults                        0                       # Number of TLB faults due to alignment restrictions
system.cpu0.itb.prefetch_faults                     0                       # Number of TLB faults due to prefetch
system.cpu0.itb.domain_faults                       0                       # Number of TLB faults due to domain restrictions
system.cpu0.itb.perms_faults                        0                       # Number of TLB faults due to permissions restrictions
system.cpu0.itb.read_accesses                       0                       # DTB read accesses
system.cpu0.itb.write_accesses                      0                       # DTB write accesses
system.cpu0.itb.inst_accesses                       0                       # ITB inst accesses
system.cpu0.itb.hits                                0                       # DTB hits
system.cpu0.itb.misses                              0                       # DTB misses
system.cpu0.itb.accesses                            0                       # DTB accesses
system.cpu0.workload.num_syscalls                 133                       # Number of system calls
system.cpu0.numCycles                           88300                       # number of cpu cycles simulated
system.cpu0.numWorkItemsStarted                     0                       # number of work items this cpu started
system.cpu0.numWorkItemsCompleted                   0                       # number of work items this cpu completed
system.cpu0.fetch.icacheStallCycles             15114                       # Number of cycles fetch is stalled on an Icache miss
system.cpu0.fetch.Insts                         36646                       # Number of instructions fetch has processed
system.cpu0.fetch.Branches                       7323                       # Number of branches that fetch encountered
system.cpu0.fetch.predictedBranches              2246                       # Number of branches that fetch has predicted taken
system.cpu0.fetch.Cycles                        32447                       # Number of cycles fetch has run and was not squashing or blocked
system.cpu0.fetch.SquashCycles                   2397                       # Number of cycles fetch has spent squashing
system.cpu0.fetch.MiscStallCycles                 303                       # Number of cycles fetch has spent waiting on interrupts, or bad addresses, or out of MSHRs
system.cpu0.fetch.PendingTrapStallCycles          108                       # Number of stall cycles due to pending traps
system.cpu0.fetch.IcacheWaitRetryStallCycles          452                       # Number of stall cycles due to full MSHR
system.cpu0.fetch.CacheLines                    11777                       # Number of cache lines fetched
system.cpu0.fetch.IcacheSquashes                  360                       # Number of outstanding Icache misses that were squashed
system.cpu0.fetch.rateDist::samples             49622                       # Number of instructions fetched each cycle (Total)
system.cpu0.fetch.rateDist::mean             0.884910                       # Number of instructions fetched each cycle (Total)
system.cpu0.fetch.rateDist::stdev            1.219635                       # Number of instructions fetched each cycle (Total)
system.cpu0.fetch.rateDist::underflows              0      0.00%      0.00% # Number of instructions fetched each cycle (Total)
system.cpu0.fetch.rateDist::0                   29335     59.12%     59.12% # Number of instructions fetched each cycle (Total)
system.cpu0.fetch.rateDist::1                    7418     14.95%     74.07% # Number of instructions fetched each cycle (Total)
system.cpu0.fetch.rateDist::2                    2114      4.26%     78.33% # Number of instructions fetched each cycle (Total)
system.cpu0.fetch.rateDist::3                   10755     21.67%    100.00% # Number of instructions fetched each cycle (Total)
system.cpu0.fetch.rateDist::overflows               0      0.00%    100.00% # Number of instructions fetched each cycle (Total)
system.cpu0.fetch.rateDist::min_value               0                       # Number of instructions fetched each cycle (Total)
system.cpu0.fetch.rateDist::max_value               3                       # Number of instructions fetched each cycle (Total)
system.cpu0.fetch.rateDist::total               49622                       # Number of instructions fetched each cycle (Total)
system.cpu0.fetch.branchRate                 0.082933                       # Number of branch fetches per cycle
system.cpu0.fetch.rate                       0.415017                       # Number of inst fetches per cycle
system.cpu0.decode.IdleCycles                   13230                       # Number of cycles decode is idle
system.cpu0.decode.BlockedCycles                18299                       # Number of cycles decode is blocked
system.cpu0.decode.RunCycles                    16564                       # Number of cycles decode is running
system.cpu0.decode.UnblockCycles                  652                       # Number of cycles decode is unblocking
system.cpu0.decode.SquashCycles                   877                       # Number of cycles decode is squashing
system.cpu0.decode.BranchResolved                 861                       # Number of times decode resolved a branch
system.cpu0.decode.BranchMispred                  344                       # Number of times decode detected a branch misprediction
system.cpu0.decode.DecodedInsts                 35284                       # Number of instructions handled by decode
system.cpu0.decode.SquashedInsts                 3896                       # Number of squashed instructions handled by decode
system.cpu0.rename.SquashCycles                   877                       # Number of cycles rename is squashing
system.cpu0.rename.IdleCycles                   16115                       # Number of cycles rename is idle
system.cpu0.rename.BlockCycles                   2266                       # Number of cycles rename is blocking
system.cpu0.rename.serializeStallCycles          7491                       # count of cycles rename stalled for serializing inst
system.cpu0.rename.RunCycles                    14302                       # Number of cycles rename is running
system.cpu0.rename.UnblockCycles                 8571                       # Number of cycles rename is unblocking
system.cpu0.rename.RenamedInsts                 32395                       # Number of instructions processed by rename
system.cpu0.rename.SquashedInsts                 1270                       # Number of squashed instructions processed by rename
system.cpu0.rename.ROBFullEvents                   72                       # Number of times rename has blocked due to ROB full
system.cpu0.rename.IQFullEvents                    11                       # Number of times rename has blocked due to IQ full
system.cpu0.rename.LQFullEvents                     1                       # Number of times rename has blocked due to LQ full
system.cpu0.rename.SQFullEvents                  8130                       # Number of times rename has blocked due to SQ full
system.cpu0.rename.RenamedOperands              36226                       # Number of destination operands rename has renamed
system.cpu0.rename.RenameLookups               151540                       # Number of register rename lookups that rename has made
system.cpu0.rename.int_rename_lookups           38929                       # Number of integer rename lookups
system.cpu0.rename.fp_rename_lookups               22                       # Number of floating rename lookups
system.cpu0.rename.CommittedMaps                26278                       # Number of HB maps that are committed
system.cpu0.rename.UndoneMaps                    9948                       # Number of HB maps that are undone due to squashing
system.cpu0.rename.serializingInsts               113                       # count of serializing insts renamed
system.cpu0.rename.tempSerializingInsts           111                       # count of temporary serializing insts renamed
system.cpu0.rename.skidInsts                     1730                       # count of insts added to the skid buffer
system.cpu0.memDep0.insertedLoads                5163                       # Number of loads inserted to the mem dependence unit.
system.cpu0.memDep0.insertedStores               5049                       # Number of stores inserted to the mem dependence unit.
system.cpu0.memDep0.conflictingLoads              233                       # Number of conflicting loads.
system.cpu0.memDep0.conflictingStores             103                       # Number of conflicting stores.
system.cpu0.iq.iqInstsAdded                     30849                       # Number of instructions added to the IQ (excludes non-spec)
system.cpu0.iq.iqNonSpecInstsAdded                244                       # Number of non-speculative instructions added to the IQ
system.cpu0.iq.iqInstsIssued                    28008                       # Number of instructions issued
system.cpu0.iq.iqSquashedInstsIssued              412                       # Number of squashed instructions issued
system.cpu0.iq.iqSquashedInstsExamined           7818                       # Number of squashed instructions iterated over during squash; mainly for profiling
system.cpu0.iq.iqSquashedOperandsExamined        19462                       # Number of squashed operands that are examined and possibly removed from graph
system.cpu0.iq.iqSquashedNonSpecRemoved            45                       # Number of squashed non-spec instructions that were removed
system.cpu0.iq.issued_per_cycle::samples        49622                       # Number of insts issued each cycle
system.cpu0.iq.issued_per_cycle::mean        0.564427                       # Number of insts issued each cycle
system.cpu0.iq.issued_per_cycle::stdev       0.949836                       # Number of insts issued each cycle
system.cpu0.iq.issued_per_cycle::underflows            0      0.00%      0.00% # Number of insts issued each cycle
system.cpu0.iq.issued_per_cycle::0              34245     69.01%     69.01% # Number of insts issued each cycle
system.cpu0.iq.issued_per_cycle::1               6192     12.48%     81.49% # Number of insts issued each cycle
system.cpu0.iq.issued_per_cycle::2               5943     11.98%     93.47% # Number of insts issued each cycle
system.cpu0.iq.issued_per_cycle::3               3041      6.13%     99.59% # Number of insts issued each cycle
system.cpu0.iq.issued_per_cycle::4                198      0.40%     99.99% # Number of insts issued each cycle
system.cpu0.iq.issued_per_cycle::5                  3      0.01%    100.00% # Number of insts issued each cycle
system.cpu0.iq.issued_per_cycle::6                  0      0.00%    100.00% # Number of insts issued each cycle
system.cpu0.iq.issued_per_cycle::7                  0      0.00%    100.00% # Number of insts issued each cycle
system.cpu0.iq.issued_per_cycle::8                  0      0.00%    100.00% # Number of insts issued each cycle
system.cpu0.iq.issued_per_cycle::overflows            0      0.00%    100.00% # Number of insts issued each cycle
system.cpu0.iq.issued_per_cycle::min_value            0                       # Number of insts issued each cycle
system.cpu0.iq.issued_per_cycle::max_value            5                       # Number of insts issued each cycle
system.cpu0.iq.issued_per_cycle::total          49622                       # Number of insts issued each cycle
system.cpu0.iq.fu_full::No_OpClass                  0      0.00%      0.00% # attempts to use FU when none available
system.cpu0.iq.fu_full::IntAlu                   2316     38.33%     38.33% # attempts to use FU when none available
system.cpu0.iq.fu_full::IntMult                     2      0.03%     38.36% # attempts to use FU when none available
system.cpu0.iq.fu_full::IntDiv                      0      0.00%     38.36% # attempts to use FU when none available
system.cpu0.iq.fu_full::FloatAdd                    0      0.00%     38.36% # attempts to use FU when none available
system.cpu0.iq.fu_full::FloatCmp                    0      0.00%     38.36% # attempts to use FU when none available
system.cpu0.iq.fu_full::FloatCvt                    0      0.00%     38.36% # attempts to use FU when none available
system.cpu0.iq.fu_full::FloatMult                   0      0.00%     38.36% # attempts to use FU when none available
system.cpu0.iq.fu_full::FloatDiv                    0      0.00%     38.36% # attempts to use FU when none available
system.cpu0.iq.fu_full::FloatSqrt                   0      0.00%     38.36% # attempts to use FU when none available
system.cpu0.iq.fu_full::SimdAdd                     0      0.00%     38.36% # attempts to use FU when none available
system.cpu0.iq.fu_full::SimdAddAcc                  0      0.00%     38.36% # attempts to use FU when none available
system.cpu0.iq.fu_full::SimdAlu                     0      0.00%     38.36% # attempts to use FU when none available
system.cpu0.iq.fu_full::SimdCmp                     0      0.00%     38.36% # attempts to use FU when none available
system.cpu0.iq.fu_full::SimdCvt                     0      0.00%     38.36% # attempts to use FU when none available
system.cpu0.iq.fu_full::SimdMisc                    0      0.00%     38.36% # attempts to use FU when none available
system.cpu0.iq.fu_full::SimdMult                    0      0.00%     38.36% # attempts to use FU when none available
system.cpu0.iq.fu_full::SimdMultAcc                 0      0.00%     38.36% # attempts to use FU when none available
system.cpu0.iq.fu_full::SimdShift                   0      0.00%     38.36% # attempts to use FU when none available
system.cpu0.iq.fu_full::SimdShiftAcc                0      0.00%     38.36% # attempts to use FU when none available
system.cpu0.iq.fu_full::SimdSqrt                    0      0.00%     38.36% # attempts to use FU when none available
system.cpu0.iq.fu_full::SimdFloatAdd                0      0.00%     38.36% # attempts to use FU when none available
system.cpu0.iq.fu_full::SimdFloatAlu                0      0.00%     38.36% # attempts to use FU when none available
system.cpu0.iq.fu_full::SimdFloatCmp                0      0.00%     38.36% # attempts to use FU when none available
system.cpu0.iq.fu_full::SimdFloatCvt                0      0.00%     38.36% # attempts to use FU when none available
system.cpu0.iq.fu_full::SimdFloatDiv                0      0.00%     38.36% # attempts to use FU when none available
system.cpu0.iq.fu_full::SimdFloatMisc               0      0.00%     38.36% # attempts to use FU when none available
system.cpu0.iq.fu_full::SimdFloatMult               0      0.00%     38.36% # attempts to use FU when none available
system.cpu0.iq.fu_full::SimdFloatMultAcc            0      0.00%     38.36% # attempts to use FU when none available
system.cpu0.iq.fu_full::SimdFloatSqrt               0      0.00%     38.36% # attempts to use FU when none available
system.cpu0.iq.fu_full::MemRead                  1277     21.14%     59.50% # attempts to use FU when none available
system.cpu0.iq.fu_full::MemWrite                 2447     40.50%    100.00% # attempts to use FU when none available
system.cpu0.iq.fu_full::IprAccess                   0      0.00%    100.00% # attempts to use FU when none available
system.cpu0.iq.fu_full::InstPrefetch                0      0.00%    100.00% # attempts to use FU when none available
system.cpu0.iq.FU_type_0::No_OpClass                0      0.00%      0.00% # Type of FU issued
system.cpu0.iq.FU_type_0::IntAlu                18484     66.00%     66.00% # Type of FU issued
system.cpu0.iq.FU_type_0::IntMult                 108      0.39%     66.38% # Type of FU issued
system.cpu0.iq.FU_type_0::IntDiv                    0      0.00%     66.38% # Type of FU issued
system.cpu0.iq.FU_type_0::FloatAdd                  0      0.00%     66.38% # Type of FU issued
system.cpu0.iq.FU_type_0::FloatCmp                  0      0.00%     66.38% # Type of FU issued
system.cpu0.iq.FU_type_0::FloatCvt                  0      0.00%     66.38% # Type of FU issued
system.cpu0.iq.FU_type_0::FloatMult                 0      0.00%     66.38% # Type of FU issued
system.cpu0.iq.FU_type_0::FloatDiv                  0      0.00%     66.38% # Type of FU issued
system.cpu0.iq.FU_type_0::FloatSqrt                 0      0.00%     66.38% # Type of FU issued
system.cpu0.iq.FU_type_0::SimdAdd                   0      0.00%     66.38% # Type of FU issued
system.cpu0.iq.FU_type_0::SimdAddAcc                0      0.00%     66.38% # Type of FU issued
system.cpu0.iq.FU_type_0::SimdAlu                   0      0.00%     66.38% # Type of FU issued
system.cpu0.iq.FU_type_0::SimdCmp                   0      0.00%     66.38% # Type of FU issued
system.cpu0.iq.FU_type_0::SimdCvt                   0      0.00%     66.38% # Type of FU issued
system.cpu0.iq.FU_type_0::SimdMisc                  0      0.00%     66.38% # Type of FU issued
system.cpu0.iq.FU_type_0::SimdMult                  0      0.00%     66.38% # Type of FU issued
system.cpu0.iq.FU_type_0::SimdMultAcc               0      0.00%     66.38% # Type of FU issued
system.cpu0.iq.FU_type_0::SimdShift                 0      0.00%     66.38% # Type of FU issued
system.cpu0.iq.FU_type_0::SimdShiftAcc              0      0.00%     66.38% # Type of FU issued
system.cpu0.iq.FU_type_0::SimdSqrt                  0      0.00%     66.38% # Type of FU issued
system.cpu0.iq.FU_type_0::SimdFloatAdd              0      0.00%     66.38% # Type of FU issued
system.cpu0.iq.FU_type_0::SimdFloatAlu              0      0.00%     66.38% # Type of FU issued
system.cpu0.iq.FU_type_0::SimdFloatCmp              0      0.00%     66.38% # Type of FU issued
system.cpu0.iq.FU_type_0::SimdFloatCvt              0      0.00%     66.38% # Type of FU issued
system.cpu0.iq.FU_type_0::SimdFloatDiv              0      0.00%     66.38% # Type of FU issued
system.cpu0.iq.FU_type_0::SimdFloatMisc             3      0.01%     66.39% # Type of FU issued
system.cpu0.iq.FU_type_0::SimdFloatMult             0      0.00%     66.39% # Type of FU issued
system.cpu0.iq.FU_type_0::SimdFloatMultAcc            0      0.00%     66.39% # Type of FU issued
system.cpu0.iq.FU_type_0::SimdFloatSqrt             0      0.00%     66.39% # Type of FU issued
system.cpu0.iq.FU_type_0::MemRead                4817     17.20%     83.59% # Type of FU issued
system.cpu0.iq.FU_type_0::MemWrite               4596     16.41%    100.00% # Type of FU issued
system.cpu0.iq.FU_type_0::IprAccess                 0      0.00%    100.00% # Type of FU issued
system.cpu0.iq.FU_type_0::InstPrefetch              0      0.00%    100.00% # Type of FU issued
system.cpu0.iq.FU_type_0::total                 28008                       # Type of FU issued
system.cpu0.iq.rate                          0.317191                       # Inst issue rate
system.cpu0.iq.fu_busy_cnt                       6042                       # FU busy when requested
system.cpu0.iq.fu_busy_rate                  0.215724                       # FU busy rate (busy events/executed inst)
system.cpu0.iq.int_inst_queue_reads            112016                       # Number of integer instruction queue reads
system.cpu0.iq.int_inst_queue_writes            38899                       # Number of integer instruction queue writes
system.cpu0.iq.int_inst_queue_wakeup_accesses        26247                       # Number of integer instruction queue wakeup accesses
system.cpu0.iq.fp_inst_queue_reads                 76                       # Number of floating instruction queue reads
system.cpu0.iq.fp_inst_queue_writes                28                       # Number of floating instruction queue writes
system.cpu0.iq.fp_inst_queue_wakeup_accesses           28                       # Number of floating instruction queue wakeup accesses
system.cpu0.iq.int_alu_accesses                 34002                       # Number of integer alu accesses
system.cpu0.iq.fp_alu_accesses                     48                       # Number of floating point alu accesses
system.cpu0.iew.lsq.thread0.forwLoads              63                       # Number of loads that had data forwarded from stores
system.cpu0.iew.lsq.thread0.invAddrLoads            0                       # Number of loads ignored due to an invalid address
system.cpu0.iew.lsq.thread0.squashedLoads         1672                       # Number of loads squashed
system.cpu0.iew.lsq.thread0.ignoredResponses            0                       # Number of memory responses ignored because the instruction is squashed
system.cpu0.iew.lsq.thread0.memOrderViolation           17                       # Number of memory ordering violations
system.cpu0.iew.lsq.thread0.squashedStores          878                       # Number of stores squashed
system.cpu0.iew.lsq.thread0.invAddrSwpfs            0                       # Number of software prefetches ignored due to an invalid address
system.cpu0.iew.lsq.thread0.blockedLoads            0                       # Number of blocked loads due to partial load-store forwarding
system.cpu0.iew.lsq.thread0.rescheduledLoads           11                       # Number of loads that were rescheduled
system.cpu0.iew.lsq.thread0.cacheBlocked          115                       # Number of times an access to memory failed due to the cache being blocked
system.cpu0.iew.iewIdleCycles                       0                       # Number of cycles IEW is idle
system.cpu0.iew.iewSquashCycles                   877                       # Number of cycles IEW is squashing
system.cpu0.iew.iewBlockCycles                    559                       # Number of cycles IEW is blocking
system.cpu0.iew.iewUnblockCycles                  390                       # Number of cycles IEW is unblocking
system.cpu0.iew.iewDispatchedInsts              31108                       # Number of instructions dispatched to IQ
system.cpu0.iew.iewDispSquashedInsts                0                       # Number of squashed instructions skipped by dispatch
system.cpu0.iew.iewDispLoadInsts                 5163                       # Number of dispatched load instructions
system.cpu0.iew.iewDispStoreInsts                5049                       # Number of dispatched store instructions
system.cpu0.iew.iewDispNonSpecInsts               109                       # Number of dispatched non-speculative instructions
system.cpu0.iew.iewIQFullEvents                     4                       # Number of times the IQ has become full, causing a stall
system.cpu0.iew.iewLSQFullEvents                  385                       # Number of times the LSQ has become full, causing a stall
system.cpu0.iew.memOrderViolationEvents            17                       # Number of memory order violations
system.cpu0.iew.predictedTakenIncorrect            28                       # Number of branches that were predicted taken incorrectly
system.cpu0.iew.predictedNotTakenIncorrect          864                       # Number of branches that were predicted not taken incorrectly
system.cpu0.iew.branchMispredicts                 892                       # Number of branch mispredicts detected at execute
system.cpu0.iew.iewExecutedInsts                26806                       # Number of executed instructions
system.cpu0.iew.iewExecLoadInsts                 4417                       # Number of load instructions executed
system.cpu0.iew.iewExecSquashedInsts             1202                       # Number of squashed instructions skipped in execute
system.cpu0.iew.exec_swp                            0                       # number of swp insts executed
system.cpu0.iew.exec_nop                           15                       # number of nop insts executed
system.cpu0.iew.exec_refs                        8841                       # number of memory reference insts executed
system.cpu0.iew.exec_branches                    4306                       # Number of branches executed
system.cpu0.iew.exec_stores                      4424                       # Number of stores executed
system.cpu0.iew.exec_rate                    0.303579                       # Inst execution rate
system.cpu0.iew.wb_sent                         26411                       # cumulative count of insts sent to commit
system.cpu0.iew.wb_count                        26275                       # cumulative count of insts written-back
system.cpu0.iew.wb_producers                    12587                       # num instructions producing a value
system.cpu0.iew.wb_consumers                    23666                       # num instructions consuming a value
system.cpu0.iew.wb_penalized                        0                       # number of instrctions required to write to 'other' IQ
system.cpu0.iew.wb_rate                      0.297565                       # insts written-back per cycle
system.cpu0.iew.wb_fanout                    0.531860                       # average fanout of values written-back
system.cpu0.iew.wb_penalized_rate                   0                       # fraction of instructions written-back that wrote to 'other' IQ
system.cpu0.commit.commitSquashedInsts           6616                       # The number of squashed insts skipped by commit
system.cpu0.commit.commitNonSpecStalls            199                       # The number of times commit has been forced to stall to communicate backwards
system.cpu0.commit.branchMispredicts              836                       # The number of times a branch was mispredicted
system.cpu0.commit.committed_per_cycle::samples        48289                       # Number of insts commited each cycle
system.cpu0.commit.committed_per_cycle::mean     0.481994                       # Number of insts commited each cycle
system.cpu0.commit.committed_per_cycle::stdev     1.173421                       # Number of insts commited each cycle
system.cpu0.commit.committed_per_cycle::underflows            0      0.00%      0.00% # Number of insts commited each cycle
system.cpu0.commit.committed_per_cycle::0        37148     76.93%     76.93% # Number of insts commited each cycle
system.cpu0.commit.committed_per_cycle::1         6034     12.50%     89.42% # Number of insts commited each cycle
system.cpu0.commit.committed_per_cycle::2         2187      4.53%     93.95% # Number of insts commited each cycle
[...]
system.cpu7.icache.demand_miss_latency::total      4536500                       # number of demand (read+write) miss cycles
system.cpu7.icache.overall_miss_latency::cpu7.inst      4536500                       # number of overall miss cycles
system.cpu7.icache.overall_miss_latency::total      4536500                       # number of overall miss cycles
system.cpu7.icache.ReadReq_accesses::cpu7.inst         3256                       # number of ReadReq accesses(hits+misses)
system.cpu7.icache.ReadReq_accesses::total         3256                       # number of ReadReq accesses(hits+misses)
system.cpu7.icache.demand_accesses::cpu7.inst         3256                       # number of demand (read+write) accesses
system.cpu7.icache.demand_accesses::total         3256                       # number of demand (read+write) accesses
system.cpu7.icache.overall_accesses::cpu7.inst         3256                       # number of overall (read+write) accesses
system.cpu7.icache.overall_accesses::total         3256                       # number of overall (read+write) accesses
system.cpu7.icache.ReadReq_miss_rate::cpu7.inst     0.018735                       # miss rate for ReadReq accesses
system.cpu7.icache.ReadReq_miss_rate::total     0.018735                       # miss rate for ReadReq accesses
system.cpu7.icache.demand_miss_rate::cpu7.inst     0.018735                       # miss rate for demand accesses
system.cpu7.icache.demand_miss_rate::total     0.018735                       # miss rate for demand accesses
system.cpu7.icache.overall_miss_rate::cpu7.inst     0.018735                       # miss rate for overall accesses
system.cpu7.icache.overall_miss_rate::total     0.018735                       # miss rate for overall accesses
system.cpu7.icache.ReadReq_avg_miss_latency::cpu7.inst 74368.852459                       # average ReadReq miss latency
system.cpu7.icache.ReadReq_avg_miss_latency::total 74368.852459                       # average ReadReq miss latency
system.cpu7.icache.demand_avg_miss_latency::cpu7.inst 74368.852459                       # average overall miss latency
system.cpu7.icache.demand_avg_miss_latency::total 74368.852459                       # average overall miss latency
system.cpu7.icache.overall_avg_miss_latency::cpu7.inst 74368.852459                       # average overall miss latency
system.cpu7.icache.overall_avg_miss_latency::total 74368.852459                       # average overall miss latency
system.cpu7.icache.blocked_cycles::no_mshrs         1351                       # number of cycles access was blocked
system.cpu7.icache.blocked_cycles::no_targets            0                       # number of cycles access was blocked
system.cpu7.icache.blocked::no_mshrs               11                       # number of cycles access was blocked
system.cpu7.icache.blocked::no_targets              0                       # number of cycles access was blocked
system.cpu7.icache.avg_blocked_cycles::no_mshrs   122.818182                       # average number of cycles each access was blocked
system.cpu7.icache.avg_blocked_cycles::no_targets          nan                       # average number of cycles each access was blocked
system.cpu7.icache.fast_writes                      0                       # number of fast writes performed
system.cpu7.icache.cache_copies                     0                       # number of cache copies performed
system.cpu7.icache.ReadReq_mshr_hits::cpu7.inst           11                       # number of ReadReq MSHR hits
system.cpu7.icache.ReadReq_mshr_hits::total           11                       # number of ReadReq MSHR hits
system.cpu7.icache.demand_mshr_hits::cpu7.inst           11                       # number of demand (read+write) MSHR hits
system.cpu7.icache.demand_mshr_hits::total           11                       # number of demand (read+write) MSHR hits
system.cpu7.icache.overall_mshr_hits::cpu7.inst           11                       # number of overall MSHR hits
system.cpu7.icache.overall_mshr_hits::total           11                       # number of overall MSHR hits
system.cpu7.icache.ReadReq_mshr_misses::cpu7.inst           50                       # number of ReadReq MSHR misses
system.cpu7.icache.ReadReq_mshr_misses::total           50                       # number of ReadReq MSHR misses
system.cpu7.icache.demand_mshr_misses::cpu7.inst           50                       # number of demand (read+write) MSHR misses
system.cpu7.icache.demand_mshr_misses::total           50                       # number of demand (read+write) MSHR misses
system.cpu7.icache.overall_mshr_misses::cpu7.inst           50                       # number of overall MSHR misses
system.cpu7.icache.overall_mshr_misses::total           50                       # number of overall MSHR misses
system.cpu7.icache.ReadReq_mshr_miss_latency::cpu7.inst      3896500                       # number of ReadReq MSHR miss cycles
system.cpu7.icache.ReadReq_mshr_miss_latency::total      3896500                       # number of ReadReq MSHR miss cycles
system.cpu7.icache.demand_mshr_miss_latency::cpu7.inst      3896500                       # number of demand (read+write) MSHR miss cycles
system.cpu7.icache.demand_mshr_miss_latency::total      3896500                       # number of demand (read+write) MSHR miss cycles
system.cpu7.icache.overall_mshr_miss_latency::cpu7.inst      3896500                       # number of overall MSHR miss cycles
system.cpu7.icache.overall_mshr_miss_latency::total      3896500                       # number of overall MSHR miss cycles
system.cpu7.icache.ReadReq_mshr_miss_rate::cpu7.inst     0.015356                       # mshr miss rate for ReadReq accesses
system.cpu7.icache.ReadReq_mshr_miss_rate::total     0.015356                       # mshr miss rate for ReadReq accesses
system.cpu7.icache.demand_mshr_miss_rate::cpu7.inst     0.015356                       # mshr miss rate for demand accesses
system.cpu7.icache.demand_mshr_miss_rate::total     0.015356                       # mshr miss rate for demand accesses
system.cpu7.icache.overall_mshr_miss_rate::cpu7.inst     0.015356                       # mshr miss rate for overall accesses
system.cpu7.icache.overall_mshr_miss_rate::total     0.015356                       # mshr miss rate for overall accesses
system.cpu7.icache.ReadReq_avg_mshr_miss_latency::cpu7.inst        77930                       # average ReadReq mshr miss latency
system.cpu7.icache.ReadReq_avg_mshr_miss_latency::total        77930                       # average ReadReq mshr miss latency
system.cpu7.icache.demand_avg_mshr_miss_latency::cpu7.inst        77930                       # average overall mshr miss latency
system.cpu7.icache.demand_avg_mshr_miss_latency::total        77930                       # average overall mshr miss latency
system.cpu7.icache.overall_avg_mshr_miss_latency::cpu7.inst        77930                       # average overall mshr miss latency
system.cpu7.icache.overall_avg_mshr_miss_latency::total        77930                       # average overall mshr miss latency
system.cpu7.icache.no_allocate_misses               0                       # Number of misses that were no-allocate
system.membus.trans_dist::ReadReq                1364                       # Transaction distribution
system.membus.trans_dist::ReadResp               1363                       # Transaction distribution
system.membus.trans_dist::Writeback                 8                       # Transaction distribution
system.membus.trans_dist::UpgradeReq               15                       # Transaction distribution
system.membus.trans_dist::SCUpgradeReq             23                       # Transaction distribution
system.membus.trans_dist::UpgradeResp              38                       # Transaction distribution
system.membus.trans_dist::ReadExReq               209                       # Transaction distribution
system.membus.trans_dist::ReadExResp              209                       # Transaction distribution
system.membus.pkt_count_system.cpu0.icache.mem_side::system.mem_ctrls.port         1231                       # Packet count per connected master and slave (bytes)
system.membus.pkt_count_system.cpu0.dcache.mem_side::system.mem_ctrls.port          653                       # Packet count per connected master and slave (bytes)
system.membus.pkt_count_system.cpu1.icache.mem_side::system.mem_ctrls.port          102                       # Packet count per connected master and slave (bytes)
system.membus.pkt_count_system.cpu1.dcache.mem_side::system.mem_ctrls.port           63                       # Packet count per connected master and slave (bytes)
system.membus.pkt_count_system.cpu2.icache.mem_side::system.mem_ctrls.port          102                       # Packet count per connected master and slave (bytes)
system.membus.pkt_count_system.cpu2.dcache.mem_side::system.mem_ctrls.port           66                       # Packet count per connected master and slave (bytes)
system.membus.pkt_count_system.cpu3.icache.mem_side::system.mem_ctrls.port           98                       # Packet count per connected master and slave (bytes)
system.membus.pkt_count_system.cpu3.dcache.mem_side::system.mem_ctrls.port           58                       # Packet count per connected master and slave (bytes)
system.membus.pkt_count_system.cpu4.icache.mem_side::system.mem_ctrls.port          102                       # Packet count per connected master and slave (bytes)
system.membus.pkt_count_system.cpu4.dcache.mem_side::system.mem_ctrls.port           58                       # Packet count per connected master and slave (bytes)
system.membus.pkt_count_system.cpu5.icache.mem_side::system.mem_ctrls.port          102                       # Packet count per connected master and slave (bytes)
system.membus.pkt_count_system.cpu5.dcache.mem_side::system.mem_ctrls.port           56                       # Packet count per connected master and slave (bytes)
system.membus.pkt_count_system.cpu6.icache.mem_side::system.mem_ctrls.port          104                       # Packet count per connected master and slave (bytes)
system.membus.pkt_count_system.cpu6.dcache.mem_side::system.mem_ctrls.port           58                       # Packet count per connected master and slave (bytes)
system.membus.pkt_count_system.cpu7.icache.mem_side::system.mem_ctrls.port          100                       # Packet count per connected master and slave (bytes)
system.membus.pkt_count_system.cpu7.dcache.mem_side::system.mem_ctrls.port           54                       # Packet count per connected master and slave (bytes)
system.membus.pkt_count::total                   3007                       # Packet count per connected master and slave (bytes)
system.membus.pkt_size_system.cpu0.icache.mem_side::system.mem_ctrls.port        39360                       # Cumulative packet size per connected master and slave (bytes)
system.membus.pkt_size_system.cpu0.dcache.mem_side::system.mem_ctrls.port        20416                       # Cumulative packet size per connected master and slave (bytes)
system.membus.pkt_size_system.cpu1.icache.mem_side::system.mem_ctrls.port         3264                       # Cumulative packet size per connected master and slave (bytes)
system.membus.pkt_size_system.cpu1.dcache.mem_side::system.mem_ctrls.port          896                       # Cumulative packet size per connected master and slave (bytes)
system.membus.pkt_size_system.cpu2.icache.mem_side::system.mem_ctrls.port         3264                       # Cumulative packet size per connected master and slave (bytes)
system.membus.pkt_size_system.cpu2.dcache.mem_side::system.mem_ctrls.port          896                       # Cumulative packet size per connected master and slave (bytes)
system.membus.pkt_size_system.cpu3.icache.mem_side::system.mem_ctrls.port         3136                       # Cumulative packet size per connected master and slave (bytes)
system.membus.pkt_size_system.cpu3.dcache.mem_side::system.mem_ctrls.port          896                       # Cumulative packet size per connected master and slave (bytes)
system.membus.pkt_size_system.cpu4.icache.mem_side::system.mem_ctrls.port         3264                       # Cumulative packet size per connected master and slave (bytes)
system.membus.pkt_size_system.cpu4.dcache.mem_side::system.mem_ctrls.port          960                       # Cumulative packet size per connected master and slave (bytes)
system.membus.pkt_size_system.cpu5.icache.mem_side::system.mem_ctrls.port         3264                       # Cumulative packet size per connected master and slave (bytes)
system.membus.pkt_size_system.cpu5.dcache.mem_side::system.mem_ctrls.port          896                       # Cumulative packet size per connected master and slave (bytes)
system.membus.pkt_size_system.cpu6.icache.mem_side::system.mem_ctrls.port         3328                       # Cumulative packet size per connected master and slave (bytes)
system.membus.pkt_size_system.cpu6.dcache.mem_side::system.mem_ctrls.port          896                       # Cumulative packet size per connected master and slave (bytes)
system.membus.pkt_size_system.cpu7.icache.mem_side::system.mem_ctrls.port         3200                       # Cumulative packet size per connected master and slave (bytes)
system.membus.pkt_size_system.cpu7.dcache.mem_side::system.mem_ctrls.port          960                       # Cumulative packet size per connected master and slave (bytes)
system.membus.pkt_size::total                   88896                       # Cumulative packet size per connected master and slave (bytes)
system.membus.snoops                              222                       # Total snoops (count)
system.membus.snoop_fanout::samples              1619                       # Request fanout histogram
system.membus.snoop_fanout::mean                   15                       # Request fanout histogram
system.membus.snoop_fanout::stdev                   0                       # Request fanout histogram
system.membus.snoop_fanout::underflows              0      0.00%      0.00% # Request fanout histogram
system.membus.snoop_fanout::0                       0      0.00%      0.00% # Request fanout histogram
system.membus.snoop_fanout::1                       0      0.00%      0.00% # Request fanout histogram
system.membus.snoop_fanout::2                       0      0.00%      0.00% # Request fanout histogram
system.membus.snoop_fanout::3                       0      0.00%      0.00% # Request fanout histogram
system.membus.snoop_fanout::4                       0      0.00%      0.00% # Request fanout histogram
system.membus.snoop_fanout::5                       0      0.00%      0.00% # Request fanout histogram
system.membus.snoop_fanout::6                       0      0.00%      0.00% # Request fanout histogram
system.membus.snoop_fanout::7                       0      0.00%      0.00% # Request fanout histogram
system.membus.snoop_fanout::8                       0      0.00%      0.00% # Request fanout histogram
system.membus.snoop_fanout::9                       0      0.00%      0.00% # Request fanout histogram
system.membus.snoop_fanout::10                      0      0.00%      0.00% # Request fanout histogram
system.membus.snoop_fanout::11                      0      0.00%      0.00% # Request fanout histogram
system.membus.snoop_fanout::12                      0      0.00%      0.00% # Request fanout histogram
system.membus.snoop_fanout::13                      0      0.00%      0.00% # Request fanout histogram
system.membus.snoop_fanout::14                      0      0.00%      0.00% # Request fanout histogram
system.membus.snoop_fanout::15                   1619    100.00%    100.00% # Request fanout histogram
system.membus.snoop_fanout::16                      0      0.00%    100.00% # Request fanout histogram
system.membus.snoop_fanout::overflows               0      0.00%    100.00% # Request fanout histogram
system.membus.snoop_fanout::min_value              15                       # Request fanout histogram
system.membus.snoop_fanout::max_value              15                       # Request fanout histogram
system.membus.snoop_fanout::total                1619                       # Request fanout histogram
system.membus.reqLayer0.occupancy             2027499                       # Layer occupancy (ticks)
system.membus.reqLayer0.utilization               4.6                       # Layer utilization (%)
system.membus.respLayer1.occupancy            3280250                       # Layer occupancy (ticks)
system.membus.respLayer1.utilization              7.4                       # Layer utilization (%)
system.membus.respLayer2.occupancy            1725994                       # Layer occupancy (ticks)
system.membus.respLayer2.utilization              3.9                       # Layer utilization (%)
system.membus.respLayer5.occupancy             274750                       # Layer occupancy (ticks)
system.membus.respLayer5.utilization              0.6                       # Layer utilization (%)
system.membus.respLayer6.occupancy             237493                       # Layer occupancy (ticks)
system.membus.respLayer6.utilization              0.5                       # Layer utilization (%)
system.membus.respLayer9.occupancy             273750                       # Layer occupancy (ticks)
system.membus.respLayer9.utilization              0.6                       # Layer utilization (%)
system.membus.respLayer10.occupancy            251249                       # Layer occupancy (ticks)
system.membus.respLayer10.utilization             0.6                       # Layer utilization (%)
system.membus.respLayer13.occupancy            261750                       # Layer occupancy (ticks)
system.membus.respLayer13.utilization             0.6                       # Layer utilization (%)
system.membus.respLayer14.occupancy            208998                       # Layer occupancy (ticks)
system.membus.respLayer14.utilization             0.5                       # Layer utilization (%)
system.membus.respLayer17.occupancy            274250                       # Layer occupancy (ticks)
system.membus.respLayer17.utilization             0.6                       # Layer utilization (%)
system.membus.respLayer18.occupancy            205998                       # Layer occupancy (ticks)
system.membus.respLayer18.utilization             0.5                       # Layer utilization (%)
system.membus.respLayer21.occupancy            274500                       # Layer occupancy (ticks)
system.membus.respLayer21.utilization             0.6                       # Layer utilization (%)
system.membus.respLayer22.occupancy            199999                       # Layer occupancy (ticks)
system.membus.respLayer22.utilization             0.5                       # Layer utilization (%)
system.membus.respLayer25.occupancy            281250                       # Layer occupancy (ticks)
system.membus.respLayer25.utilization             0.6                       # Layer utilization (%)
system.membus.respLayer26.occupancy            211747                       # Layer occupancy (ticks)
system.membus.respLayer26.utilization             0.5                       # Layer utilization (%)
system.membus.respLayer29.occupancy            269500                       # Layer occupancy (ticks)
system.membus.respLayer29.utilization             0.6                       # Layer utilization (%)
system.membus.respLayer30.occupancy            180500                       # Layer occupancy (ticks)
system.membus.respLayer30.utilization             0.4                       # Layer utilization (%)

---------- End Simulation Statistics   ----------
