
---------- Begin Simulation Statistics ----------
sim_seconds                                  0.000037                       # Number of seconds simulated
sim_ticks                                    36982500                       # Number of ticks simulated
final_tick                                   36982500                       # Number of ticks from beginning of simulation (restored from checkpoints and never reset)
sim_freq                                 1000000000000                       # Frequency of simulated ticks
host_inst_rate                                 220108                       # Simulator instruction rate (inst/s)
host_op_rate                                   231491                       # Simulator op (including micro ops) rate (op/s)
host_tick_rate                               36738860                       # Simulator tick rate (ticks/s)
host_mem_usage                                 679184                       # Number of bytes of host memory used
host_seconds                                     1.01                       # Real time elapsed on the host
sim_insts                                      221561                       # Number of instructions simulated
sim_ops                                        233023                       # Number of ops (including micro ops) simulated
system.voltage_domain.voltage                       1                       # Voltage in Volts
system.clk_domain.clock                          1000                       # Clock period in ticks
system.mem_ctrls.bytes_read::cpu0.inst          38336                       # Number of bytes read from this memory
system.mem_ctrls.bytes_read::cpu0.data          20096                       # Number of bytes read from this memory
system.mem_ctrls.bytes_read::cpu1.inst           3392                       # Number of bytes read from this memory
system.mem_ctrls.bytes_read::cpu1.data           1024                       # Number of bytes read from this memory
system.mem_ctrls.bytes_read::cpu2.inst           3584                       # Number of bytes read from this memory
system.mem_ctrls.bytes_read::cpu2.data           1024                       # Number of bytes read from this memory
system.mem_ctrls.bytes_read::cpu3.inst           3456                       # Number of bytes read from this memory
system.mem_ctrls.bytes_read::cpu3.data           1024                       # Number of bytes read from this memory
system.mem_ctrls.bytes_read::cpu4.inst           3328                       # Number of bytes read from this memory
system.mem_ctrls.bytes_read::cpu4.data           1088                       # Number of bytes read from this memory
system.mem_ctrls.bytes_read::cpu5.inst           3328                       # Number of bytes read from this memory
system.mem_ctrls.bytes_read::cpu5.data            960                       # Number of bytes read from this memory
system.mem_ctrls.bytes_read::cpu6.inst           3648                       # Number of bytes read from this memory
system.mem_ctrls.bytes_read::cpu6.data           1024                       # Number of bytes read from this memory
system.mem_ctrls.bytes_read::cpu7.inst           3328                       # Number of bytes read from this memory
system.mem_ctrls.bytes_read::cpu7.data           1024                       # Number of bytes read from this memory
system.mem_ctrls.bytes_read::total              89664                       # Number of bytes read from this memory
system.mem_ctrls.bytes_inst_read::cpu0.inst        38336                       # Number of instructions bytes read from this memory
system.mem_ctrls.bytes_inst_read::cpu1.inst         3392                       # Number of instructions bytes read from this memory
system.mem_ctrls.bytes_inst_read::cpu2.inst         3584                       # Number of instructions bytes read from this memory
system.mem_ctrls.bytes_inst_read::cpu3.inst         3456                       # Number of instructions bytes read from this memory
system.mem_ctrls.bytes_inst_read::cpu4.inst         3328                       # Number of instructions bytes read from this memory
system.mem_ctrls.bytes_inst_read::cpu5.inst         3328                       # Number of instructions bytes read from this memory
system.mem_ctrls.bytes_inst_read::cpu6.inst         3648                       # Number of instructions bytes read from this memory
system.mem_ctrls.bytes_inst_read::cpu7.inst         3328                       # Number of instructions bytes read from this memory
system.mem_ctrls.bytes_inst_read::total         62400                       # Number of instructions bytes read from this memory
system.mem_ctrls.bytes_written::writebacks          512                       # Number of bytes written to this memory
system.mem_ctrls.bytes_written::total             512                       # Number of bytes written to this memory
system.mem_ctrls.num_reads::cpu0.inst             599                       # Number of read requests responded to by this memory
system.mem_ctrls.num_reads::cpu0.data             314                       # Number of read requests responded to by this memory
system.mem_ctrls.num_reads::cpu1.inst              53                       # Number of read requests responded to by this memory
system.mem_ctrls.num_reads::cpu1.data              16                       # Number of read requests responded to by this memory
system.mem_ctrls.num_reads::cpu2.inst              56                       # Number of read requests responded to by this memory
system.mem_ctrls.num_reads::cpu2.data              16                       # Number of read requests responded to by this memory
system.mem_ctrls.num_reads::cpu3.inst              54                       # Number of read requests responded to by this memory
system.mem_ctrls.num_reads::cpu3.data              16                       # Number of read requests responded to by this memory
system.mem_ctrls.num_reads::cpu4.inst              52                       # Number of read requests responded to by this memory
system.mem_ctrls.num_reads::cpu4.data              17                       # Number of read requests responded to by this memory
system.mem_ctrls.num_reads::cpu5.inst              52                       # Number of read requests responded to by this memory
system.mem_ctrls.num_reads::cpu5.data              15                       # Number of read requests responded to by this memory
system.mem_ctrls.num_reads::cpu6.inst              57                       # Number of read requests responded to by this memory
system.mem_ctrls.num_reads::cpu6.data              16                       # Number of read requests responded to by this memory
system.mem_ctrls.num_reads::cpu7.inst              52                       # Number of read requests responded to by this memory
system.mem_ctrls.num_reads::cpu7.data              16                       # Number of read requests responded to by this memory
system.mem_ctrls.num_reads::total                1401                       # Number of read requests responded to by this memory
system.mem_ctrls.num_writes::writebacks             8                       # Number of write requests responded to by this memory
system.mem_ctrls.num_writes::total                  8                       # Number of write requests responded to by this memory
system.mem_ctrls.bw_read::cpu0.inst        1036598391                       # Total read bandwidth from this memory (bytes/s)
system.mem_ctrls.bw_read::cpu0.data         543392145                       # Total read bandwidth from this memory (bytes/s)
system.mem_ctrls.bw_read::cpu1.inst          91719056                       # Total read bandwidth from this memory (bytes/s)
system.mem_ctrls.bw_read::cpu1.data          27688772                       # Total read bandwidth from this memory (bytes/s)
system.mem_ctrls.bw_read::cpu2.inst          96910701                       # Total read bandwidth from this memory (bytes/s)
system.mem_ctrls.bw_read::cpu2.data          27688772                       # Total read bandwidth from this memory (bytes/s)
system.mem_ctrls.bw_read::cpu3.inst          93449605                       # Total read bandwidth from this memory (bytes/s)
system.mem_ctrls.bw_read::cpu3.data          27688772                       # Total read bandwidth from this memory (bytes/s)
system.mem_ctrls.bw_read::cpu4.inst          89988508                       # Total read bandwidth from this memory (bytes/s)
system.mem_ctrls.bw_read::cpu4.data          29419320                       # Total read bandwidth from this memory (bytes/s)
system.mem_ctrls.bw_read::cpu5.inst          89988508                       # Total read bandwidth from this memory (bytes/s)
system.mem_ctrls.bw_read::cpu5.data          25958223                       # Total read bandwidth from this memory (bytes/s)
system.mem_ctrls.bw_read::cpu6.inst          98641249                       # Total read bandwidth from this memory (bytes/s)
system.mem_ctrls.bw_read::cpu6.data          27688772                       # Total read bandwidth from this memory (bytes/s)
system.mem_ctrls.bw_read::cpu7.inst          89988508                       # Total read bandwidth from this memory (bytes/s)
system.mem_ctrls.bw_read::cpu7.data          27688772                       # Total read bandwidth from this memory (bytes/s)
system.mem_ctrls.bw_read::total            2424498073                       # Total read bandwidth from this memory (bytes/s)
system.mem_ctrls.bw_inst_read::cpu0.inst   1036598391                       # Instruction read bandwidth from this memory (bytes/s)
system.mem_ctrls.bw_inst_read::cpu1.inst     91719056                       # Instruction read bandwidth from this memory (bytes/s)
system.mem_ctrls.bw_inst_read::cpu2.inst     96910701                       # Instruction read bandwidth from this memory (bytes/s)
system.mem_ctrls.bw_inst_read::cpu3.inst     93449605                       # Instruction read bandwidth from this memory (bytes/s)
system.mem_ctrls.bw_inst_read::cpu4.inst     89988508                       # Instruction read bandwidth from this memory (bytes/s)
system.mem_ctrls.bw_inst_read::cpu5.inst     89988508                       # Instruction read bandwidth from this memory (bytes/s)
system.mem_ctrls.bw_inst_read::cpu6.inst     98641249                       # Instruction read bandwidth from this memory (bytes/s)
system.mem_ctrls.bw_inst_read::cpu7.inst     89988508                       # Instruction read bandwidth from this memory (bytes/s)
system.mem_ctrls.bw_inst_read::total       1687284526                       # Instruction read bandwidth from this memory (bytes/s)
system.mem_ctrls.bw_write::writebacks        13844386                       # Write bandwidth from this memory (bytes/s)
system.mem_ctrls.bw_write::total             13844386                       # Write bandwidth from this memory (bytes/s)
system.mem_ctrls.bw_total::writebacks        13844386                       # Total bandwidth to/from this memory (bytes/s)
system.mem_ctrls.bw_total::cpu0.inst       1036598391                       # Total bandwidth to/from this memory (bytes/s)
system.mem_ctrls.bw_total::cpu0.data        543392145                       # Total bandwidth to/from this memory (bytes/s)
system.mem_ctrls.bw_total::cpu1.inst         91719056                       # Total bandwidth to/from this memory (bytes/s)
system.mem_ctrls.bw_total::cpu1.data         27688772                       # Total bandwidth to/from this memory (bytes/s)
system.mem_ctrls.bw_total::cpu2.inst         96910701                       # Total bandwidth to/from this memory (bytes/s)
system.mem_ctrls.bw_total::cpu2.data         27688772                       # Total bandwidth to/from this memory (bytes/s)
system.mem_ctrls.bw_total::cpu3.inst         93449605                       # Total bandwidth to/from this memory (bytes/s)
system.mem_ctrls.bw_total::cpu3.data         27688772                       # Total bandwidth to/from this memory (bytes/s)
system.mem_ctrls.bw_total::cpu4.inst         89988508                       # Total bandwidth to/from this memory (bytes/s)
system.mem_ctrls.bw_total::cpu4.data         29419320                       # Total bandwidth to/from this memory (bytes/s)
system.mem_ctrls.bw_total::cpu5.inst         89988508                       # Total bandwidth to/from this memory (bytes/s)
system.mem_ctrls.bw_total::cpu5.data         25958223                       # Total bandwidth to/from this memory (bytes/s)
system.mem_ctrls.bw_total::cpu6.inst         98641249                       # Total bandwidth to/from this memory (bytes/s)
system.mem_ctrls.bw_total::cpu6.data         27688772                       # Total bandwidth to/from this memory (bytes/s)
system.mem_ctrls.bw_total::cpu7.inst         89988508                       # Total bandwidth to/from this memory (bytes/s)
system.mem_ctrls.bw_total::cpu7.data         27688772                       # Total bandwidth to/from this memory (bytes/s)
system.mem_ctrls.bw_total::total           2438342459                       # Total bandwidth to/from this memory (bytes/s)
system.mem_ctrls.readReqs                        1402                       # Number of read requests accepted
system.mem_ctrls.writeReqs                          8                       # Number of write requests accepted
system.mem_ctrls.readBursts                      1402                       # Number of DRAM read bursts, including those serviced by the write queue
system.mem_ctrls.writeBursts                        8                       # Number of DRAM write bursts, including those merged in the write queue
system.mem_ctrls.bytesReadDRAM                  89728                       # Total number of bytes read from DRAM
system.mem_ctrls.bytesReadWrQ                       0                       # Total number of bytes read from write queue
system.mem_ctrls.bytesWritten                       0                       # Total number of bytes written to DRAM
system.mem_ctrls.bytesReadSys                   89728                       # Total read bytes from the system interface side
system.mem_ctrls.bytesWrittenSys                  512                       # Total written bytes from the system interface side
system.mem_ctrls.servicedByWrQ                      0                       # Number of DRAM read bursts serviced by the write queue
system.mem_ctrls.mergedWrBursts                     0                       # Number of DRAM write bursts merged with an existing one
system.mem_ctrls.neitherReadNorWriteReqs            7                       # Number of requests that are neither read nor write
system.mem_ctrls.perBankRdBursts::0               200                       # Per bank write bursts
system.mem_ctrls.perBankRdBursts::1               366                       # Per bank write bursts
system.mem_ctrls.perBankRdBursts::2               222                       # Per bank write bursts
system.mem_ctrls.perBankRdBursts::3               162                       # Per bank write bursts
system.mem_ctrls.perBankRdBursts::4                50                       # Per bank write bursts
system.mem_ctrls.perBankRdBursts::5                50                       # Per bank write bursts
system.mem_ctrls.perBankRdBursts::6               125                       # Per bank write bursts
system.mem_ctrls.perBankRdBursts::7                33                       # Per bank write bursts
system.mem_ctrls.perBankRdBursts::8                14                       # Per bank write bursts
system.mem_ctrls.perBankRdBursts::9                10                       # Per bank write bursts
system.mem_ctrls.perBankRdBursts::10                0                       # Per bank write bursts
system.mem_ctrls.perBankRdBursts::11               14                       # Per bank write bursts
system.mem_ctrls.perBankRdBursts::12                9                       # Per bank write bursts
system.mem_ctrls.perBankRdBursts::13               38                       # Per bank write bursts
system.mem_ctrls.perBankRdBursts::14               40                       # Per bank write bursts
system.mem_ctrls.perBankRdBursts::15               69                       # Per bank write bursts
system.mem_ctrls.perBankWrBursts::0                 0                       # Per bank write bursts
system.mem_ctrls.perBankWrBursts::1                 0                       # Per bank write bursts
system.mem_ctrls.perBankWrBursts::2                 0                       # Per bank write bursts
system.mem_ctrls.perBankWrBursts::3                 0                       # Per bank write bursts
system.mem_ctrls.perBankWrBursts::4                 0                       # Per bank write bursts
system.mem_ctrls.perBankWrBursts::5                 0                       # Per bank write bursts
system.mem_ctrls.perBankWrBursts::6                 0                       # Per bank write bursts
system.mem_ctrls.perBankWrBursts::7                 0                       # Per bank write bursts
system.mem_ctrls.perBankWrBursts::8                 0                       # Per bank write bursts
system.mem_ctrls.perBankWrBursts::9                 0                       # Per bank write bursts
system.mem_ctrls.perBankWrBursts::10                0                       # Per bank write bursts
system.mem_ctrls.perBankWrBursts::11                0                       # Per bank write bursts
system.mem_ctrls.perBankWrBursts::12                0                       # Per bank write bursts
system.mem_ctrls.perBankWrBursts::13                0                       # Per bank write bursts
system.mem_ctrls.perBankWrBursts::14                0                       # Per bank write bursts
system.mem_ctrls.perBankWrBursts::15                0                       # Per bank write bursts
system.mem_ctrls.numRdRetry                         0                       # Number of times read queue was full causing retry
system.mem_ctrls.numWrRetry                         0                       # Number of times write queue was full causing retry
system.mem_ctrls.totGap                      36975000                       # Total gap between requests
system.mem_ctrls.readPktSize::0                     0                       # Read request sizes (log2)
system.mem_ctrls.readPktSize::1                     0                       # Read request sizes (log2)
system.mem_ctrls.readPktSize::2                     0                       # Read request sizes (log2)
system.mem_ctrls.readPktSize::3                     0                       # Read request sizes (log2)
system.mem_ctrls.readPktSize::4                     0                       # Read request sizes (log2)
system.mem_ctrls.readPktSize::5                     0                       # Read request sizes (log2)
system.mem_ctrls.readPktSize::6                  1402                       # Read request sizes (log2)
system.mem_ctrls.writePktSize::0                    0                       # Write request sizes (log2)
system.mem_ctrls.writePktSize::1                    0                       # Write request sizes (log2)
system.mem_ctrls.writePktSize::2                    0                       # Write request sizes (log2)
system.mem_ctrls.writePktSize::3                    0                       # Write request sizes (log2)
system.mem_ctrls.writePktSize::4                    0                       # Write request sizes (log2)
system.mem_ctrls.writePktSize::5                    0                       # Write request sizes (log2)
system.mem_ctrls.writePktSize::6                    8                       # Write request sizes (log2)
system.mem_ctrls.rdQLenPdf::0                     469                       # What read queue length does an incoming req see
system.mem_ctrls.rdQLenPdf::1                     299                       # What read queue length does an incoming req see
system.mem_ctrls.rdQLenPdf::2                     117                       # What read queue length does an incoming req see
system.mem_ctrls.rdQLenPdf::3                      83                       # What read queue length does an incoming req see
system.mem_ctrls.rdQLenPdf::4                      64                       # What read queue length does an incoming req see
system.mem_ctrls.rdQLenPdf::5                      55                       # What read queue length does an incoming req see
system.mem_ctrls.rdQLenPdf::6                      49                       # What read queue length does an incoming req see
system.mem_ctrls.rdQLenPdf::7                      43                       # What read queue length does an incoming req see
system.mem_ctrls.rdQLenPdf::8                      49                       # What read queue length does an incoming req see
system.mem_ctrls.rdQLenPdf::9                      40                       # What read queue length does an incoming req see
system.mem_ctrls.rdQLenPdf::10                     36                       # What read queue length does an incoming req see
system.mem_ctrls.rdQLenPdf::11                     32                       # What read queue length does an incoming req see
system.mem_ctrls.rdQLenPdf::12                     24                       # What read queue length does an incoming req see
system.mem_ctrls.rdQLenPdf::13                     17                       # What read queue length does an incoming req see
system.mem_ctrls.rdQLenPdf::14                     11                       # What read queue length does an incoming req see
system.mem_ctrls.rdQLenPdf::15                      9                       # What read queue length does an incoming req see
system.mem_ctrls.rdQLenPdf::16                      3                       # What read queue length does an incoming req see
system.mem_ctrls.rdQLenPdf::17                      2                       # What read queue length does an incoming req see
system.mem_ctrls.rdQLenPdf::18                      0                       # What read queue length does an incoming req see
system.mem_ctrls.rdQLenPdf::19                      0                       # What read queue length does an incoming req see
system.mem_ctrls.rdQLenPdf::20                      0                       # What read queue length does an incoming req see
system.mem_ctrls.rdQLenPdf::21                      0                       # What read queue length does an incoming req see
system.mem_ctrls.rdQLenPdf::22                      0                       # What read queue length does an incoming req see
system.mem_ctrls.rdQLenPdf::23                      0                       # What read queue length does an incoming req see
system.mem_ctrls.rdQLenPdf::24                      0                       # What read queue length does an incoming req see
system.mem_ctrls.rdQLenPdf::25                      0                       # What read queue length does an incoming req see
system.mem_ctrls.rdQLenPdf::26                      0                       # What read queue length does an incoming req see
system.mem_ctrls.rdQLenPdf::27                      0                       # What read queue length does an incoming req see
system.mem_ctrls.rdQLenPdf::28                      0                       # What read queue length does an incoming req see
system.mem_ctrls.rdQLenPdf::29                      0                       # What read queue length does an incoming req see
system.mem_ctrls.rdQLenPdf::30                      0                       # What read queue length does an incoming req see
system.mem_ctrls.rdQLenPdf::31                      0                       # What read queue length does an incoming req see
system.mem_ctrls.wrQLenPdf::0                       1                       # What write queue length does an incoming req see
system.mem_ctrls.wrQLenPdf::1                       1                       # What write queue length does an incoming req see
system.mem_ctrls.wrQLenPdf::2                       1                       # What write queue length does an incoming req see
system.mem_ctrls.wrQLenPdf::3                       1                       # What write queue length does an incoming req see
system.mem_ctrls.wrQLenPdf::4                       1                       # What write queue length does an incoming req see
system.mem_ctrls.wrQLenPdf::5                       1                       # What write queue length does an incoming req see
system.mem_ctrls.wrQLenPdf::6                       1                       # What write queue length does an incoming req see
system.mem_ctrls.wrQLenPdf::7                       1                       # What write queue length does an incoming req see
system.mem_ctrls.wrQLenPdf::8                       0                       # What write queue length does an incoming req see
system.mem_ctrls.wrQLenPdf::9                       0                       # What write queue length does an incoming req see
system.mem_ctrls.wrQLenPdf::10                      0                       # What write queue length does an incoming req see
system.mem_ctrls.wrQLenPdf::11                      0                       # What write queue length does an incoming req see
system.mem_ctrls.wrQLenPdf::12                      0                       # What write queue length does an incoming req see
system.mem_ctrls.wrQLenPdf::13                      0                       # What write queue length does an incoming req see
system.mem_ctrls.wrQLenPdf::14                      0                       # What write queue length does an incoming req see
system.mem_ctrls.wrQLenPdf::15                      0                       # What write queue length does an incoming req see
system.mem_ctrls.wrQLenPdf::16                      0                       # What write queue length does an incoming req see
system.mem_ctrls.wrQLenPdf::17                      0                       # What write queue length does an incoming req see
system.mem_ctrls.wrQLenPdf::18                      0                       # What write queue length does an incoming req see
system.mem_ctrls.wrQLenPdf::19                      0                       # What write queue length does an incoming req see
system.mem_ctrls.wrQLenPdf::20                      0                       # What write queue length does an incoming req see
system.mem_ctrls.wrQLenPdf::21                      0                       # What write queue length does an incoming req see
system.mem_ctrls.wrQLenPdf::22                      0                       # What write queue length does an incoming req see
system.mem_ctrls.wrQLenPdf::23                      0                       # What write queue length does an incoming req see
system.mem_ctrls.wrQLenPdf::24                      0                       # What write queue length does an incoming req see
system.mem_ctrls.wrQLenPdf::25                      0                       # What write queue length does an incoming req see
system.mem_ctrls.wrQLenPdf::26                      0                       # What write queue length does an incoming req see
system.mem_ctrls.wrQLenPdf::27                      0                       # What write queue length does an incoming req see
system.mem_ctrls.wrQLenPdf::28                      0                       # What write queue length does an incoming req see
system.mem_ctrls.wrQLenPdf::29                      0                       # What write queue length does an incoming req see
system.mem_ctrls.wrQLenPdf::30                      0                       # What write queue length does an incoming req see
system.mem_ctrls.wrQLenPdf::31                      0                       # What write queue length does an incoming req see
system.mem_ctrls.wrQLenPdf::32                      0                       # What write queue length does an incoming req see
system.mem_ctrls.wrQLenPdf::33                      0                       # What write queue length does an incoming req see
system.mem_ctrls.wrQLenPdf::34                      0                       # What write queue length does an incoming req see
system.mem_ctrls.wrQLenPdf::35                      0                       # What write queue length does an incoming req see
system.mem_ctrls.wrQLenPdf::36                      0                       # What write queue length does an incoming req see
system.mem_ctrls.wrQLenPdf::37                      0                       # What write queue length does an incoming req see
system.mem_ctrls.wrQLenPdf::38                      0                       # What write queue length does an incoming req see
system.mem_ctrls.wrQLenPdf::39                      0                       # What write queue length does an incoming req see
system.mem_ctrls.wrQLenPdf::40                      0                       # What write queue length does an incoming req see
system.mem_ctrls.wrQLenPdf::41                      0                       # What write queue length does an incoming req see
system.mem_ctrls.wrQLenPdf::42                      0                       # What write queue length does an incoming req see
system.mem_ctrls.wrQLenPdf::43                      0                       # What write queue length does an incoming req see
system.mem_ctrls.wrQLenPdf::44                      0                       # What write queue length does an incoming req see
system.mem_ctrls.wrQLenPdf::45                      0                       # What write queue length does an incoming req see
system.mem_ctrls.wrQLenPdf::46                      0                       # What write queue length does an incoming req see
system.mem_ctrls.wrQLenPdf::47                      0                       # What write queue length does an incoming req see
system.mem_ctrls.wrQLenPdf::48                      0                       # What write queue length does an incoming req see
system.mem_ctrls.wrQLenPdf::49                      0                       # What write queue length does an incoming req see
system.mem_ctrls.wrQLenPdf::50                      0                       # What write queue length does an incoming req see
system.mem_ctrls.wrQLenPdf::51                      0                       # What write queue length does an incoming req see
system.mem_ctrls.wrQLenPdf::52                      0                       # What write queue length does an incoming req see
system.mem_ctrls.wrQLenPdf::53                      0                       # What write queue length does an incoming req see
system.mem_ctrls.wrQLenPdf::54                      0                       # What write queue length does an incoming req see
system.mem_ctrls.wrQLenPdf::55                      0                       # What write queue length does an incoming req see
system.mem_ctrls.wrQLenPdf::56                      0                       # What write queue length does an incoming req see
system.mem_ctrls.wrQLenPdf::57                      0                       # What write queue length does an incoming req see
system.mem_ctrls.wrQLenPdf::58                      0                       # What write queue length does an incoming req see
system.mem_ctrls.wrQLenPdf::59                      0                       # What write queue length does an incoming req see
system.mem_ctrls.wrQLenPdf::60                      0                       # What write queue length does an incoming req see
system.mem_ctrls.wrQLenPdf::61                      0                       # What write queue length does an incoming req see
system.mem_ctrls.wrQLenPdf::62                      0                       # What write queue length does an incoming req see
system.mem_ctrls.wrQLenPdf::63                      0                       # What write queue length does an incoming req see
system.mem_ctrls.bytesPerActivate::samples          277                       # Bytes accessed per row activation
system.mem_ctrls.bytesPerActivate::mean    310.758123                       # Bytes accessed per row activation
system.mem_ctrls.bytesPerActivate::gmean   177.392343                       # Bytes accessed per row activation
system.mem_ctrls.bytesPerActivate::stdev   333.716994                       # Bytes accessed per row activation
system.mem_ctrls.bytesPerActivate::0-127          118     42.60%     42.60% # Bytes accessed per row activation
system.mem_ctrls.bytesPerActivate::128-255           52     18.77%     61.37% # Bytes accessed per row activation
system.mem_ctrls.bytesPerActivate::256-383           22      7.94%     69.31% # Bytes accessed per row activation
system.mem_ctrls.bytesPerActivate::384-511           17      6.14%     75.45% # Bytes accessed per row activation
system.mem_ctrls.bytesPerActivate::512-639           19      6.86%     82.31% # Bytes accessed per row activation
system.mem_ctrls.bytesPerActivate::640-767            6      2.17%     84.48% # Bytes accessed per row activation
system.mem_ctrls.bytesPerActivate::768-895            6      2.17%     86.64% # Bytes accessed per row activation
system.mem_ctrls.bytesPerActivate::896-1023            2      0.72%     87.36% # Bytes accessed per row activation
system.mem_ctrls.bytesPerActivate::1024-1151           35     12.64%    100.00% # Bytes accessed per row activation
system.mem_ctrls.bytesPerActivate::total          277                       # Bytes accessed per row activation
system.mem_ctrls.totQLat                     36586250                       # Total ticks spent queuing
system.mem_ctrls.totMemAccLat                62873750                       # Total ticks spent from burst creation until serviced by the DRAM
system.mem_ctrls.totBusLat                    7010000                       # Total ticks spent in databus transfers
system.mem_ctrls.avgQLat                     26095.76                       # Average queueing delay per DRAM burst
system.mem_ctrls.avgBusLat                    5000.00                       # Average bus latency per DRAM burst
system.mem_ctrls.avgMemAccLat                44845.76                       # Average memory access latency per DRAM burst
system.mem_ctrls.avgRdBW                      2426.23                       # Average DRAM read bandwidth in MiByte/s
system.mem_ctrls.avgWrBW                         0.00                       # Average achieved write bandwidth in MiByte/s
system.mem_ctrls.avgRdBWSys                   2426.23                       # Average system read bandwidth in MiByte/s
system.mem_ctrls.avgWrBWSys                     13.84                       # Average system write bandwidth in MiByte/s
system.mem_ctrls.peakBW                      12800.00                       # Theoretical peak bandwidth in MiByte/s
system.mem_ctrls.busUtil                        18.95                       # Data bus utilization in percentage
system.mem_ctrls.busUtilRead                    18.95                       # Data bus utilization in percentage for reads
system.mem_ctrls.busUtilWrite                    0.00                       # Data bus utilization in percentage for writes
system.mem_ctrls.avgRdQLen                       2.74                       # Average read queue length when enqueuing
system.mem_ctrls.avgWrQLen                       1.60                       # Average write queue length when enqueuing
system.mem_ctrls.readRowHits                     1113                       # Number of row buffer hits during reads
system.mem_ctrls.writeRowHits                       0                       # Number of row buffer hits during writes
system.mem_ctrls.readRowHitRate                 79.39                       # Row buffer hit rate for reads
system.mem_ctrls.writeRowHitRate                 0.00                       # Row buffer hit rate for writes
system.mem_ctrls.avgGap                      26223.40                       # Average gap between requests
system.mem_ctrls.pageHitRate                    78.94                       # Row buffer hit rate, read and write combined
system.mem_ctrls_0.actEnergy                  1496880                       # Energy for activate commands per rank (pJ)
system.mem_ctrls_0.preEnergy                   816750                       # Energy for precharge commands per rank (pJ)
system.mem_ctrls_0.readEnergy                 6481800                       # Energy for read commands per rank (pJ)
system.mem_ctrls_0.writeEnergy                      0                       # Energy for write commands per rank (pJ)
system.mem_ctrls_0.refreshEnergy              2034240                       # Energy for refresh commands per rank (pJ)
system.mem_ctrls_0.actBackEnergy             21405780                       # Energy for active background per rank (pJ)
system.mem_ctrls_0.preBackEnergy               103500                       # Energy for precharge background per rank (pJ)
system.mem_ctrls_0.totalEnergy               32338950                       # Total energy per rank (pJ)
system.mem_ctrls_0.averagePower           1027.693652                       # Core power per rank (mW)
system.mem_ctrls_0.memoryStateTime::IDLE        75000                       # Time in different power states
system.mem_ctrls_0.memoryStateTime::REF       1040000                       # Time in different power states
system.mem_ctrls_0.memoryStateTime::PRE_PDN            0                       # Time in different power states
system.mem_ctrls_0.memoryStateTime::ACT      30365500                       # Time in different power states
system.mem_ctrls_0.memoryStateTime::ACT_PDN            0                       # Time in different power states
system.mem_ctrls_1.actEnergy                   189000                       # Energy for activate commands per rank (pJ)
system.mem_ctrls_1.preEnergy                   103125                       # Energy for precharge commands per rank (pJ)
system.mem_ctrls_1.readEnergy                 1131000                       # Energy for read commands per rank (pJ)
system.mem_ctrls_1.writeEnergy                      0                       # Energy for write commands per rank (pJ)
system.mem_ctrls_1.refreshEnergy              2034240                       # Energy for refresh commands per rank (pJ)
system.mem_ctrls_1.actBackEnergy             21188610                       # Energy for active background per rank (pJ)
system.mem_ctrls_1.preBackEnergy               264000                       # Energy for precharge background per rank (pJ)
system.mem_ctrls_1.totalEnergy               24909975                       # Total energy per rank (pJ)
system.mem_ctrls_1.averagePower            792.869420                       # Core power per rank (mW)
system.mem_ctrls_1.memoryStateTime::IDLE       549500                       # Time in different power states
system.mem_ctrls_1.memoryStateTime::REF       1040000                       # Time in different power states
system.mem_ctrls_1.memoryStateTime::PRE_PDN            0                       # Time in different power states
system.mem_ctrls_1.memoryStateTime::ACT      30047000                       # Time in different power states
system.mem_ctrls_1.memoryStateTime::ACT_PDN            0                       # Time in different power states
system.cpu0.branchPred.lookups                   8814                       # Number of BP lookups
system.cpu0.branchPred.condPredicted             6614                       # Number of conditional branches predicted
system.cpu0.branchPred.condIncorrect              939                       # Number of conditional branches incorrect
system.cpu0.branchPred.BTBLookups                6087                       # Number of BTB lookups
system.cpu0.branchPred.BTBHits                   2963                       # Number of BTB hits
system.cpu0.branchPred.BTBCorrect                   0                       # Number of correct BTB predictions (this stat may not work properly.
system.cpu0.branchPred.BTBHitPct            48.677509                       # BTB Hit Percentage
system.cpu0.branchPred.usedRAS                    866                       # Number of times the RAS was used to get a target.
system.cpu0.branchPred.RASInCorrect                11                       # Number of incorrect RAS predictions.
system.cpu_voltage_domain.voltage                   1                       # Voltage in Volts
system.cpu_clk_domain.clock                       500                       # Clock period in ticks
system.cpu0.dstage2_mmu.stage2_tlb.walker.walks            0                       # Table walker walks requested
system.cpu0.dstage2_mmu.stage2_tlb.walker.walkRequestOrigin_Requested::Data            0                       # Table walker requests started/completed, data/inst
system.cpu0.dstage2_mmu.stage2_tlb.walker.walkRequestOrigin_Requested::Inst            0                       # Table walker requests started/completed, data/inst
system.cpu0.dstage2_mmu.stage2_tlb.walker.walkRequestOrigin_Requested::total            0                       # Table walker requests started/completed, data/inst
system.cpu0.dstage2_mmu.stage2_tlb.walker.walkRequestOrigin_Completed::Data            0                       # Table walker requests started/completed, data/inst
system.cpu0.dstage2_mmu.stage2_tlb.walker.walkRequestOrigin_Completed::Inst            0                       # Table walker requests started/completed, data/inst
system.cpu0.dstage2_mmu.stage2_tlb.walker.walkRequestOrigin_Completed::total            0                       # Table walker requests started/completed, data/inst
system.cpu0.dstage2_mmu.stage2_tlb.walker.walkRequestOrigin::total            0                       # Table walker requests started/completed, data/inst
system.cpu0.dstage2_mmu.stage2_tlb.inst_hits            0                       # ITB inst hits
system.cpu0.dstage2_mmu.stage2_tlb.inst_misses            0                       # ITB inst misses
system.cpu0.dstage2_mmu.stage2_tlb.read_hits            0                       # DTB read hits
system.cpu0.dstage2_mmu.stage2_tlb.read_misses            0                       # DTB read misses
system.cpu0.dstage2_mmu.stage2_tlb.write_hits            0                       # DTB write hits
system.cpu0.dstage2_mmu.stage2_tlb.write_misses            0                       # DTB write misses
system.cpu0.dstage2_mmu.stage2_tlb.flush_tlb            0                       # Number of times complete TLB was flushed
system.cpu0.dstage2_mmu.stage2_tlb.flush_tlb_mva            0                       # Number of times TLB was flushed by MVA
system.cpu0.dstage2_mmu.stage2_tlb.flush_tlb_mva_asid            0                       # Number of times TLB was flushed by MVA & ASID
system.cpu0.dstage2_mmu.stage2_tlb.flush_tlb_asid            0                       # Number of times TLB was flushed by ASID
system.cpu0.dstage2_mmu.stage2_tlb.flush_entries            0                       # Number of entries that have been flushed from TLB
system.cpu0.dstage2_mmu.stage2_tlb.align_faults            0                       # Number of TLB faults due to alignment restrictions
system.cpu0.dstage2_mmu.stage2_tlb.prefetch_faults            0                       # Number of TLB faults due to prefetch
system.cpu0.dstage2_mmu.stage2_tlb.domain_faults            0                       # Number of TLB faults due to domain restrictions
system.cpu0.dstage2_mmu.stage2_tlb.perms_faults            0                       # Number of TLB faults due to permissions restrictions
system.cpu0.dstage2_mmu.stage2_tlb.read_accesses            0                       # DTB read accesses
system.cpu0.dstage2_mmu.stage2_tlb.write_accesses            0                       # DTB write accesses
system.cpu0.dstage2_mmu.stage2_tlb.inst_accesses            0                       # ITB inst accesses
system.cpu0.dstage2_mmu.stage2_tlb.hits             0                       # DTB hits
system.cpu0.dstage2_mmu.stage2_tlb.misses            0                       # DTB misses
system.cpu0.dstage2_mmu.stage2_tlb.accesses            0                       # DTB accesses
system.cpu0.dtb.walker.walks                        0                       # Table walker walks requested
system.cpu0.dtb.walker.walkRequestOrigin_Requested::Data            0                       # Table walker requests started/completed, data/inst
system.cpu0.dtb.walker.walkRequestOrigin_Requested::Inst            0                       # Table walker requests started/completed, data/inst
system.cpu0.dtb.walker.walkRequestOrigin_Requested::total            0                       # Table walker requests started/completed, data/inst
system.cpu0.dtb.walker.walkRequestOrigin_Completed::Data            0                       # Table walker requests started/completed, data/inst
system.cpu0.dtb.walker.walkRequestOrigin_Completed::Inst            0                       # Table walker requests started/completed, data/inst
system.cpu0.dtb.walker.walkRequestOrigin_Completed::total            0                       # Table walker requests started/completed, data/inst
system.cpu0.dtb.walker.walkRequestOrigin::total            0                       # Table walker requests started/completed, data/inst
system.cpu0.dtb.inst_hits                           0                       # ITB inst hits
system.cpu0.dtb.inst_misses                         0                       # ITB inst misses
system.cpu0.dtb.read_hits                           0                       # DTB read hits
system.cpu0.dtb.read_misses                         0                       # DTB read misses
system.cpu0.dtb.write_hits                          0                       # DTB write hits
system.cpu0.dtb.write_misses                        0                       # DTB write misses
system.cpu0.dtb.flush_tlb                           0                       # Number of times complete TLB was flushed
system.cpu0.dtb.flush_tlb_mva                       0                       # Number of times TLB was flushed by MVA
system.cpu0.dtb.flush_tlb_mva_asid                  0                       # Number of times TLB was flushed by MVA & ASID
system.cpu0.dtb.flush_tlb_asid                      0                       # Number of times TLB was flushed by ASID
system.cpu0.dtb.flush_entries                       0                       # Number of entries that have been flushed from TLB
system.cpu0.dtb.align_faults                        0                       # Number of TLB faults due to alignment restrictions
system.cpu0.dtb.prefetch_faults                     0                       # Number of TLB faults due to prefetch
system.cpu0.dtb.domain_faults                       0                       # Number of TLB faults due to domain restrictions
system.cpu0.dtb.perms_faults                        0                       # Number of TLB faults due to permissions restrictions
system.cpu0.dtb.read_accesses                       0                       # DTB read accesses
system.cpu0.dtb.write_accesses                      0                       # DTB write accesses
system.cpu0.dtb.inst_accesses                       0                       # ITB inst accesses
system.cpu0.dtb.hits                                0                       # DTB hits
system.cpu0.dtb.misses                              0                       # DTB misses
system.cpu0.dtb.accesses                            0                       # DTB accesses
system.cpu0.istage2_mmu.stage2_tlb.walker.walks            0                       # Table walker walks requested
system.cpu0.istage2_mmu.stage2_tlb.walker.walkRequestOrigin_Requested::Data            0                       # Table walker requests started/completed, data/inst
system.cpu0.istage2_mmu.stage2_tlb.walker.walkRequestOrigin_Requested::Inst            0                       # Table walker requests started/completed, data/inst
system.cpu0.istage2_mmu.stage2_tlb.walker.walkRequestOrigin_Requested::total            0                       # Table walker requests started/completed, data/inst
system.cpu0.istage2_mmu.stage2_tlb.walker.walkRequestOrigin_Completed::Data            0                       # Table walker requests started/completed, data/inst
system.cpu0.istage2_mmu.stage2_tlb.walker.walkRequestOrigin_Completed::Inst            0                       # Table walker requests started/completed, data/inst
system.cpu0.istage2_mmu.stage2_tlb.walker.walkRequestOrigin_Completed::total            0                       # Table walker requests started/completed, data/inst
system.cpu0.istage2_mmu.stage2_tlb.walker.walkRequestOrigin::total            0                       # Table walker requests started/completed, data/inst
system.cpu0.istage2_mmu.stage2_tlb.inst_hits            0                       # ITB inst hits
system.cpu0.istage2_mmu.stage2_tlb.inst_misses            0                       # ITB inst misses
system.cpu0.istage2_mmu.stage2_tlb.read_hits            0                       # DTB read hits
system.cpu0.istage2_mmu.stage2_tlb.read_misses            0                       # DTB read misses
system.cpu0.istage2_mmu.stage2_tlb.write_hits            0                       # DTB write hits
system.cpu0.istage2_mmu.stage2_tlb.write_misses            0                       # DTB write misses
system.cpu0.istage2_mmu.stage2_tlb.flush_tlb            0                       # Number of times complete TLB was flushed
system.cpu0.istage2_mmu.stage2_tlb.flush_tlb_mva            0                       # Number of times TLB was flushed by MVA
system.cpu0.istage2_mmu.stage2_tlb.flush_tlb_mva_asid            0                       # Number of times TLB was flushed by MVA & ASID
system.cpu0.istage2_mmu.stage2_tlb.flush_tlb_asid            0                       # Number of times TLB was flushed by ASID
system.cpu0.istage2_mmu.stage2_tlb.flush_entries            0                       # Number of entries that have been flushed from TLB
system.cpu0.istage2_mmu.stage2_tlb.align_faults            0                       # Number of TLB faults due to alignment restrictions
system.cpu0.istage2_mmu.stage2_tlb.prefetch_faults            0                       # Number of TLB faults due to prefetch
system.cpu0.istage2_mmu.stage2_tlb.domain_faults            0                       # Number of TLB faults due to domain restrictions
system.cpu0.istage2_mmu.stage2_tlb.perms_faults            0                       # Number of TLB faults due to permissions restrictions
system.cpu0.istage2_mmu.stage2_tlb.read_accesses            0                       # DTB read accesses
system.cpu0.istage2_mmu.stage2_tlb.write_accesses            0                       # DTB write accesses
system.cpu0.istage2_mmu.stage2_tlb.inst_accesses            0                       # ITB inst accesses
system.cpu0.istage2_mmu.stage2_tlb.hits             0                       # DTB hits
system.cpu0.istage2_mmu.stage2_tlb.misses            0                       # DTB misses
system.cpu0.istage2_mmu.stage2_tlb.accesses            0                       # DTB accesses
system.cpu0.itb.walker.walks                        0                       # Table walker walks requested
system.cpu0.itb.walker.walkRequestOrigin_Requested::Data            0                       # Table walker requests started/completed, data/inst
system.cpu0.itb.walker.walkRequestOrigin_Requested::Inst            0                       # Table walker requests started/completed, data/inst
system.cpu0.itb.walker.walkRequestOrigin_Requested::total            0                       # Table walker requests started/completed, data/inst
system.cpu0.itb.walker.walkRequestOrigin_Completed::Data            0                       # Table walker requests started/completed, data/inst
system.cpu0.itb.walker.walkRequestOrigin_Completed::Inst            0                       # Table walker requests started/completed, data/inst
system.cpu0.itb.walker.walkRequestOrigin_Completed::total            0                       # Table walker requests started/completed, data/inst
system.cpu0.itb.walker.walkRequestOrigin::total            0                       # Table walker requests started/completed, data/inst
system.cpu0.itb.inst_hits                           0                       # ITB inst hits
system.cpu0.itb.inst_misses                         0                       # ITB inst misses
system.cpu0.itb.read_hits                           0                       # DTB read hits
system.cpu0.itb.read_misses                         0                       # DTB read misses
system.cpu0.itb.write_hits                          0                       # DTB write hits
system.cpu0.itb.write_misses                        0                       # DTB write misses
system.cpu0.itb.flush_tlb                           0                       # Number of times complete TLB was flushed
system.cpu0.itb.flush_tlb_mva                       0                       # Number of times TLB was flushed by MVA
system.cpu0.itb.flush_tlb_mva_asid                  0                       # Number of times TLB was flushed by MVA & ASID
system.cpu0.itb.flush_tlb_asid                      0                       # Number of times TLB was flushed by ASID
system.cpu0.itb.flush_entries                       0                       # Number of entries that have been flushed from TLB
system.cpu0.itb.align_faults                        0                       # Number of TLB faults due to alignment restrictions
system.cpu0.itb.prefetch_faults                     0                       # Number of TLB faults due to prefetch
system.cpu0.itb.domain_faults                       0                       # Number of TLB faults due to domain restrictions
system.cpu0.itb.perms_faults                        0                       # Number of TLB faults due to permissions restrictions
system.cpu0.itb.read_accesses                       0                       # DTB read accesses
system.cpu0.itb.write_accesses                      0                       # DTB write accesses
system.cpu0.itb.inst_accesses                       0                       # ITB inst accesses
system.cpu0.itb.hits                                0                       # DTB hits
system.cpu0.itb.misses                              0                       # DTB misses
system.cpu0.itb.accesses                            0                       # DTB accesses
system.cpu0.workload.num_syscalls                 263                       # Number of system calls
system.cpu0.numCycles                           73966                       # number of cpu cycles simulated
system.cpu0.numWorkItemsStarted                     0                       # number of work items this cpu started
system.cpu0.numWorkItemsCompleted                   0                       # number of work items this cpu completed
system.cpu0.fetch.icacheStallCycles             18172                       # Number of cycles fetch is stalled on an Icache miss
system.cpu0.fetch.Insts                         42814                       # Number of instructions fetch has processed
system.cpu0.fetch.Branches                       8814                       # Number of branches that fetch encountered
system.cpu0.fetch.predictedBranches              3829                       # Number of branches that fetch has predicted taken
system.cpu0.fetch.Cycles                        19146                       # Number of cycles fetch has run and was not squashing or blocked
system.cpu0.fetch.SquashCycles                   2023                       # Number of cycles fetch has spent squashing
system.cpu0.fetch.MiscStallCycles                   1                       # Number of cycles fetch has spent waiting on interrupts, or bad addresses, or out of MSHRs
system.cpu0.fetch.PendingTrapStallCycles            1                       # Number of stall cycles due to pending traps
system.cpu0.fetch.CacheLines                     5182                       # Number of cache lines fetched
system.cpu0.fetch.IcacheSquashes                  628                       # Number of outstanding Icache misses that were squashed
system.cpu0.fetch.rateDist::samples             38331                       # Number of instructions fetched each cycle (Total)
system.cpu0.fetch.rateDist::mean             1.312045                       # Number of instructions fetched each cycle (Total)
system.cpu0.fetch.rateDist::stdev            2.723920                       # Number of instructions fetched each cycle (Total)
system.cpu0.fetch.rateDist::underflows              0      0.00%      0.00% # Number of instructions fetched each cycle (Total)
system.cpu0.fetch.rateDist::0                   29770     77.67%     77.67% # Number of instructions fetched each cycle (Total)
system.cpu0.fetch.rateDist::1                     658      1.72%     79.38% # Number of instructions fetched each cycle (Total)
system.cpu0.fetch.rateDist::2                     829      2.16%     81.54% # Number of instructions fetched each cycle (Total)
system.cpu0.fetch.rateDist::3                     656      1.71%     83.26% # Number of instructions fetched each cycle (Total)
system.cpu0.fetch.rateDist::4                     472      1.23%     84.49% # Number of instructions fetched each cycle (Total)
system.cpu0.fetch.rateDist::5                     512      1.34%     85.82% # Number of instructions fetched each cycle (Total)
system.cpu0.fetch.rateDist::6                     529      1.38%     87.20% # Number of instructions fetched each cycle (Total)
system.cpu0.fetch.rateDist::7                     854      2.23%     89.43% # Number of instructions fetched each cycle (Total)
system.cpu0.fetch.rateDist::8                    4051     10.57%    100.00% # Number of instructions fetched each cycle (Total)
system.cpu0.fetch.rateDist::overflows               0      0.00%    100.00% # Number of instructions fetched each cycle (Total)
system.cpu0.fetch.rateDist::min_value               0                       # Number of instructions fetched each cycle (Total)
system.cpu0.fetch.rateDist::max_value               8                       # Number of instructions fetched each cycle (Total)
system.cpu0.fetch.rateDist::total               38331                       # Number of instructions fetched each cycle (Total)
system.cpu0.fetch.branchRate                 0.119163                       # Number of branch fetches per cycle
system.cpu0.fetch.rate                       0.578834                       # Number of inst fetches per cycle
system.cpu0.decode.IdleCycles                   14253                       # Number of cycles decode is idle
system.cpu0.decode.BlockedCycles                16040                       # Number of cycles decode is blocked
system.cpu0.decode.RunCycles                     6707                       # Number of cycles decode is running
system.cpu0.decode.UnblockCycles                  616                       # Number of cycles decode is unblocking
system.cpu0.decode.SquashCycles                   715                       # Number of cycles decode is squashing
system.cpu0.decode.BranchResolved                 928                       # Number of times decode resolved a branch
system.cpu0.decode.BranchMispred                  308                       # Number of times decode detected a branch misprediction
system.cpu0.decode.DecodedInsts                 43758                       # Number of instructions handled by decode
system.cpu0.decode.SquashedInsts                 1117                       # Number of squashed instructions handled by decode
system.cpu0.rename.SquashCycles                   715                       # Number of cycles rename is squashing
system.cpu0.rename.IdleCycles                   14895                       # Number of cycles rename is idle
system.cpu0.rename.BlockCycles                   2313                       # Number of cycles rename is blocking
system.cpu0.rename.serializeStallCycles          9130                       # count of cycles rename stalled for serializing inst
system.cpu0.rename.RunCycles                     6650                       # Number of cycles rename is running
system.cpu0.rename.UnblockCycles                 4628                       # Number of cycles rename is unblocking
system.cpu0.rename.RenamedInsts                 41966                       # Number of instructions processed by rename
system.cpu0.rename.ROBFullEvents                    4                       # Number of times rename has blocked due to ROB full
system.cpu0.rename.IQFullEvents                   150                       # Number of times rename has blocked due to IQ full
system.cpu0.rename.LQFullEvents                    58                       # Number of times rename has blocked due to LQ full
system.cpu0.rename.SQFullEvents                  4209                       # Number of times rename has blocked due to SQ full
system.cpu0.rename.RenamedOperands              49344                       # Number of destination operands rename has renamed
system.cpu0.rename.RenameLookups               195884                       # Number of register rename lookups that rename has made
system.cpu0.rename.int_rename_lookups           50278                       # Number of integer rename lookups
system.cpu0.rename.fp_rename_lookups               24                       # Number of floating rename lookups
system.cpu0.rename.CommittedMaps                31567                       # Number of HB maps that are committed
system.cpu0.rename.UndoneMaps                   17777                       # Number of HB maps that are undone due to squashing
system.cpu0.rename.serializingInsts               144                       # count of serializing insts renamed
system.cpu0.rename.tempSerializingInsts           143                       # count of temporary serializing insts renamed
system.cpu0.rename.skidInsts                     2771                       # count of insts added to the skid buffer
system.cpu0.memDep0.insertedLoads                6667                       # Number of loads inserted to the mem dependence unit.
system.cpu0.memDep0.insertedStores               5686                       # Number of stores inserted to the mem dependence unit.
system.cpu0.memDep0.conflictingLoads              637                       # Number of conflicting loads.
system.cpu0.memDep0.conflictingStores             660                       # Number of conflicting stores.
system.cpu0.iq.iqInstsAdded                     38949                       # Number of instructions added to the IQ (excludes non-spec)
system.cpu0.iq.iqNonSpecInstsAdded                281                       # Number of non-speculative instructions added to the IQ
system.cpu0.iq.iqInstsIssued                    33765                       # Number of instructions issued
system.cpu0.iq.iqSquashedInstsIssued               75                       # Number of squashed instructions issued
system.cpu0.iq.iqSquashedInstsExamined          12999                       # Number of squashed instructions iterated over during squash; mainly for profiling
system.cpu0.iq.iqSquashedOperandsExamined        32671                       # Number of squashed operands that are examined and possibly removed from graph
system.cpu0.iq.iqSquashedNonSpecRemoved            75                       # Number of squashed non-spec instructions that were removed
system.cpu0.iq.issued_per_cycle::samples        38331                       # Number of insts issued each cycle
system.cpu0.iq.issued_per_cycle::mean        0.880880                       # Number of insts issued each cycle
system.cpu0.iq.issued_per_cycle::stdev       1.769676                       # Number of insts issued each cycle
system.cpu0.iq.issued_per_cycle::underflows            0      0.00%      0.00% # Number of insts issued each cycle
system.cpu0.iq.issued_per_cycle::0              27636     72.10%     72.10% # Number of insts issued each cycle
system.cpu0.iq.issued_per_cycle::1               3089      8.06%     80.16% # Number of insts issued each cycle
system.cpu0.iq.issued_per_cycle::2               1905      4.97%     85.13% # Number of insts issued each cycle
system.cpu0.iq.issued_per_cycle::3               1527      3.98%     89.11% # Number of insts issued each cycle
system.cpu0.iq.issued_per_cycle::4               1424      3.72%     92.83% # Number of insts issued each cycle
system.cpu0.iq.issued_per_cycle::5               1034      2.70%     95.52% # Number of insts issued each cycle
system.cpu0.iq.issued_per_cycle::6                754      1.97%     97.49% # Number of insts issued each cycle
system.cpu0.iq.issued_per_cycle::7                801      2.09%     99.58% # Number of insts issued each cycle
system.cpu0.iq.issued_per_cycle::8                161      0.42%    100.00% # Number of insts issued each cycle
system.cpu0.iq.issued_per_cycle::overflows            0      0.00%    100.00% # Number of insts issued each cycle
system.cpu0.iq.issued_per_cycle::min_value            0                       # Number of insts issued each cycle
system.cpu0.iq.issued_per_cycle::max_value            8                       # Number of insts issued each cycle
system.cpu0.iq.issued_per_cycle::total          38331                       # Number of insts issued each cycle
system.cpu0.iq.fu_full::No_OpClass                  0      0.00%      0.00% # attempts to use FU when none available
system.cpu0.iq.fu_full::IntAlu                    426     49.88%     49.88% # attempts to use FU when none available
system.cpu0.iq.fu_full::IntMult                     1      0.12%     50.00% # attempts to use FU when none available
system.cpu0.iq.fu_full::IntDiv                      0      0.00%     50.00% # attempts to use FU when none available
system.cpu0.iq.fu_full::FloatAdd                    0      0.00%     50.00% # attempts to use FU when none available
system.cpu0.iq.fu_full::FloatCmp                    0      0.00%     50.00% # attempts to use FU when none available
system.cpu0.iq.fu_full::FloatCvt                    0      0.00%     50.00% # attempts to use FU when none available
system.cpu0.iq.fu_full::FloatMult                   0      0.00%     50.00% # attempts to use FU when none available
system.cpu0.iq.fu_full::FloatDiv                    0      0.00%     50.00% # attempts to use FU when none available
system.cpu0.iq.fu_full::FloatSqrt                   0      0.00%     50.00% # attempts to use FU when none available
system.cpu0.iq.fu_full::SimdAdd                     0      0.00%     50.00% # attempts to use FU when none available
system.cpu0.iq.fu_full::SimdAddAcc                  0      0.00%     50.00% # attempts to use FU when none available
system.cpu0.iq.fu_full::SimdAlu                     0      0.00%     50.00% # attempts to use FU when none available
system.cpu0.iq.fu_full::SimdCmp                     0      0.00%     50.00% # attempts to use FU when none available
system.cpu0.iq.fu_full::SimdCvt                     0      0.00%     50.00% # attempts to use FU when none available
system.cpu0.iq.fu_full::SimdMisc                    0      0.00%     50.00% # attempts to use FU when none available
system.cpu0.iq.fu_full::SimdMult                    0      0.00%     50.00% # attempts to use FU when none available
system.cpu0.iq.fu_full::SimdMultAcc                 0      0.00%     50.00% # attempts to use FU when none available
system.cpu0.iq.fu_full::SimdShift                   0      0.00%     50.00% # attempts to use FU when none available
system.cpu0.iq.fu_full::SimdShiftAcc                0      0.00%     50.00% # attempts to use FU when none available
system.cpu0.iq.fu_full::SimdSqrt                    0      0.00%     50.00% # attempts to use FU when none available
system.cpu0.iq.fu_full::SimdFloatAdd                0      0.00%     50.00% # attempts to use FU when none available
system.cpu0.iq.fu_full::SimdFloatAlu                0      0.00%     50.00% # attempts to use FU when none available
system.cpu0.iq.fu_full::SimdFloatCmp                0      0.00%     50.00% # attempts to use FU when none available
system.cpu0.iq.fu_full::SimdFloatCvt                0      0.00%     50.00% # attempts to use FU when none available
system.cpu0.iq.fu_full::SimdFloatDiv                0      0.00%     50.00% # attempts to use FU when none available
system.cpu0.iq.fu_full::SimdFloatMisc               0      0.00%     50.00% # attempts to use FU when none available
system.cpu0.iq.fu_full::SimdFloatMult               0      0.00%     50.00% # attempts to use FU when none available
system.cpu0.iq.fu_full::SimdFloatMultAcc            0      0.00%     50.00% # attempts to use FU when none available
system.cpu0.iq.fu_full::SimdFloatSqrt               0      0.00%     50.00% # attempts to use FU when none available
system.cpu0.iq.fu_full::MemRead                   203     23.77%     73.77% # attempts to use FU when none available
system.cpu0.iq.fu_full::MemWrite                  224     26.23%    100.00% # attempts to use FU when none available
system.cpu0.iq.fu_full::IprAccess                   0      0.00%    100.00% # attempts to use FU when none available
system.cpu0.iq.fu_full::InstPrefetch                0      0.00%    100.00% # attempts to use FU when none available
system.cpu0.iq.FU_type_0::No_OpClass                0      0.00%      0.00% # Type of FU issued
system.cpu0.iq.FU_type_0::IntAlu                22544     66.77%     66.77% # Type of FU issued
system.cpu0.iq.FU_type_0::IntMult                 125      0.37%     67.14% # Type of FU issued
system.cpu0.iq.FU_type_0::IntDiv                    0      0.00%     67.14% # Type of FU issued
system.cpu0.iq.FU_type_0::FloatAdd                  0      0.00%     67.14% # Type of FU issued
system.cpu0.iq.FU_type_0::FloatCmp                  0      0.00%     67.14% # Type of FU issued
system.cpu0.iq.FU_type_0::FloatCvt                  0      0.00%     67.14% # Type of FU issued
system.cpu0.iq.FU_type_0::FloatMult                 0      0.00%     67.14% # Type of FU issued
system.cpu0.iq.FU_type_0::FloatDiv                  0      0.00%     67.14% # Type of FU issued
system.cpu0.iq.FU_type_0::FloatSqrt                 0      0.00%     67.14% # Type of FU issued
system.cpu0.iq.FU_type_0::SimdAdd                   0      0.00%     67.14% # Type of FU issued
system.cpu0.iq.FU_type_0::SimdAddAcc                0      0.00%     67.14% # Type of FU issued
system.cpu0.iq.FU_type_0::SimdAlu                   0      0.00%     67.14% # Type of FU issued
system.cpu0.iq.FU_type_0::SimdCmp                   0      0.00%     67.14% # Type of FU issued
system.cpu0.iq.FU_type_0::SimdCvt                   0      0.00%     67.14% # Type of FU issued
system.cpu0.iq.FU_type_0::SimdMisc                  0      0.00%     67.14% # Type of FU issued
system.cpu0.iq.FU_type_0::SimdMult                  0      0.00%     67.14% # Type of FU issued
system.cpu0.iq.FU_type_0::SimdMultAcc               0      0.00%     67.14% # Type of FU issued
system.cpu0.iq.FU_type_0::SimdShift                 0      0.00%     67.14% # Type of FU issued
system.cpu0.iq.FU_type_0::SimdShiftAcc              0      0.00%     67.14% # Type of FU issued
system.cpu0.iq.FU_type_0::SimdSqrt                  0      0.00%     67.14% # Type of FU issued
system.cpu0.iq.FU_type_0::SimdFloatAdd              0      0.00%     67.14% # Type of FU issued
system.cpu0.iq.FU_type_0::SimdFloatAlu              0      0.00%     67.14% # Type of FU issued
system.cpu0.iq.FU_type_0::SimdFloatCmp              0      0.00%     67.14% # Type of FU issued
system.cpu0.iq.FU_type_0::SimdFloatCvt              0      0.00%     67.14% # Type of FU issued
system.cpu0.iq.FU_type_0::SimdFloatDiv              0      0.00%     67.14% # Type of FU issued
system.cpu0.iq.FU_type_0::SimdFloatMisc             3      0.01%     67.15% # Type of FU issued
system.cpu0.iq.FU_type_0::SimdFloatMult             0      0.00%     67.15% # Type of FU issued
system.cpu0.iq.FU_type_0::SimdFloatMultAcc            0      0.00%     67.15% # Type of FU issued
system.cpu0.iq.FU_type_0::SimdFloatSqrt             0      0.00%     67.15% # Type of FU issued
system.cpu0.iq.FU_type_0::MemRead                6194     18.34%     85.49% # Type of FU issued
system.cpu0.iq.FU_type_0::MemWrite               4899     14.51%    100.00% # Type of FU issued
system.cpu0.iq.FU_type_0::IprAccess                 0      0.00%    100.00% # Type of FU issued
system.cpu0.iq.FU_type_0::InstPrefetch              0      0.00%    100.00% # Type of FU issued
system.cpu0.iq.FU_type_0::total                 33765                       # Type of FU issued
system.cpu0.iq.rate                          0.456494                       # Inst issue rate
system.cpu0.iq.fu_busy_cnt                        854                       # FU busy when requested
system.cpu0.iq.fu_busy_rate                  0.025292                       # FU busy rate (busy events/executed inst)
system.cpu0.iq.int_inst_queue_reads            106729                       # Number of integer instruction queue reads
system.cpu0.iq.int_inst_queue_writes            52259                       # Number of integer instruction queue writes
system.cpu0.iq.int_inst_queue_wakeup_accesses        31722                       # Number of integer instruction queue wakeup accesses
system.cpu0.iq.fp_inst_queue_reads                 61                       # Number of floating instruction queue reads
system.cpu0.iq.fp_inst_queue_writes                32                       # Number of floating instruction queue writes
system.cpu0.iq.fp_inst_queue_wakeup_accesses           28                       # Number of floating instruction queue wakeup accesses
system.cpu0.iq.int_alu_accesses                 34586                       # Number of integer alu accesses
system.cpu0.iq.fp_alu_accesses                     33                       # Number of floating point alu accesses
system.cpu0.iew.lsq.thread0.forwLoads             127                       # Number of loads that had data forwarded from stores
system.cpu0.iew.lsq.thread0.invAddrLoads            0                       # Number of loads ignored due to an invalid address
system.cpu0.iew.lsq.thread0.squashedLoads         2765                       # Number of loads squashed
system.cpu0.iew.lsq.thread0.ignoredResponses            3                       # Number of memory responses ignored because the instruction is squashed
system.cpu0.iew.lsq.thread0.memOrderViolation           64                       # Number of memory ordering violations
system.cpu0.iew.lsq.thread0.squashedStores         1456                       # Number of stores squashed
system.cpu0.iew.lsq.thread0.invAddrSwpfs            0                       # Number of software prefetches ignored due to an invalid address
system.cpu0.iew.lsq.thread0.blockedLoads            0                       # Number of blocked loads due to partial load-store forwarding
system.cpu0.iew.lsq.thread0.rescheduledLoads          141                       # Number of loads that were rescheduled
system.cpu0.iew.lsq.thread0.cacheBlocked           55                       # Number of times an access to memory failed due to the cache being blocked
system.cpu0.iew.iewIdleCycles                       0                       # Number of cycles IEW is idle
system.cpu0.iew.iewSquashCycles                   715                       # Number of cycles IEW is squashing
system.cpu0.iew.iewBlockCycles                   1802                       # Number of cycles IEW is blocking
system.cpu0.iew.iewUnblockCycles                  440                       # Number of cycles IEW is unblocking
system.cpu0.iew.iewDispatchedInsts              39238                       # Number of instructions dispatched to IQ
system.cpu0.iew.iewDispSquashedInsts              218                       # Number of squashed instructions skipped by dispatch
system.cpu0.iew.iewDispLoadInsts                 6667                       # Number of dispatched load instructions
system.cpu0.iew.iewDispStoreInsts                5686                       # Number of dispatched store instructions
system.cpu0.iew.iewDispNonSpecInsts               131                       # Number of dispatched non-speculative instructions
system.cpu0.iew.iewIQFullEvents                    19                       # Number of times the IQ has become full, causing a stall
system.cpu0.iew.iewLSQFullEvents                  414                       # Number of times the LSQ has become full, causing a stall
system.cpu0.iew.memOrderViolationEvents            64                       # Number of memory order violations
system.cpu0.iew.predictedTakenIncorrect           124                       # Number of branches that were predicted taken incorrectly
system.cpu0.iew.predictedNotTakenIncorrect          582                       # Number of branches that were predicted not taken incorrectly
system.cpu0.iew.branchMispredicts                 706                       # Number of branch mispredicts detected at execute
system.cpu0.iew.iewExecutedInsts                32865                       # Number of executed instructions
system.cpu0.iew.iewExecLoadInsts                 5890                       # Number of load instructions executed
system.cpu0.iew.iewExecSquashedInsts              900                       # Number of squashed instructions skipped in execute
system.cpu0.iew.exec_swp                            0                       # number of swp insts executed
system.cpu0.iew.exec_nop                            8                       # number of nop insts executed
system.cpu0.iew.exec_refs                       10589                       # number of memory reference insts executed
system.cpu0.iew.exec_branches                    5492                       # Number of branches executed
system.cpu0.iew.exec_stores                      4699                       # Number of stores executed
system.cpu0.iew.exec_rate                    0.444326                       # Inst execution rate
system.cpu0.iew.wb_sent                         32047                       # cumulative count of insts sent to commit
system.cpu0.iew.wb_count                        31750                       # cumulative count of insts written-back
system.cpu0.iew.wb_producers                    17184                       # num instructions producing a value
system.cpu0.iew.wb_consumers                    36335                       # num instructions consuming a value
system.cpu0.iew.wb_penalized                        0                       # number of instrctions required to write to 'other' IQ
system.cpu0.iew.wb_rate                      0.429251                       # insts written-back per cycle
system.cpu0.iew.wb_fanout                    0.472932                       # average fanout of values written-back
system.cpu0.iew.wb_penalized_rate                   0                       # fraction of instructions written-back that wrote to 'other' IQ
system.cpu0.commit.commitSquashedInsts          13010                       # The number of squashed insts skipped by commit
system.cpu0.commit.commitNonSpecStalls            206                       # The number of times commit has been forced to stall to communicate backwards
system.cpu0.commit.branchMispredicts              643                       # The number of times a branch was mispredicted
system.cpu0.commit.committed_per_cycle::samples        36276                       # Number of insts commited each cycle
system.cpu0.commit.committed_per_cycle::mean     0.723095                       # Number of insts commited each cycle
system.cpu0.commit.committed_per_cycle::stdev     1.797337                       # Number of insts commited each cycle
system.cpu0.commit.committed_per_cycle::underflows            0      0.00%      0.00% # Number of insts commited each cycle
[...]
system.cpu7.icache.overall_miss_latency::cpu7.inst      6324997                       # number of overall miss cycles
system.cpu7.icache.overall_miss_latency::total      6324997                       # number of overall miss cycles
system.cpu7.icache.ReadReq_accesses::cpu7.inst          691                       # number of ReadReq accesses(hits+misses)
system.cpu7.icache.ReadReq_accesses::total          691                       # number of ReadReq accesses(hits+misses)
system.cpu7.icache.demand_accesses::cpu7.inst          691                       # number of demand (read+write) accesses
system.cpu7.icache.demand_accesses::total          691                       # number of demand (read+write) accesses
system.cpu7.icache.overall_accesses::cpu7.inst          691                       # number of overall (read+write) accesses
system.cpu7.icache.overall_accesses::total          691                       # number of overall (read+write) accesses
system.cpu7.icache.ReadReq_miss_rate::cpu7.inst     0.107091                       # miss rate for ReadReq accesses
system.cpu7.icache.ReadReq_miss_rate::total     0.107091                       # miss rate for ReadReq accesses
system.cpu7.icache.demand_miss_rate::cpu7.inst     0.107091                       # miss rate for demand accesses
system.cpu7.icache.demand_miss_rate::total     0.107091                       # miss rate for demand accesses
system.cpu7.icache.overall_miss_rate::cpu7.inst     0.107091                       # miss rate for overall accesses
system.cpu7.icache.overall_miss_rate::total     0.107091                       # miss rate for overall accesses
system.cpu7.icache.ReadReq_avg_miss_latency::cpu7.inst 85472.932432                       # average ReadReq miss latency
system.cpu7.icache.ReadReq_avg_miss_latency::total 85472.932432                       # average ReadReq miss latency
system.cpu7.icache.demand_avg_miss_latency::cpu7.inst 85472.932432                       # average overall miss latency
system.cpu7.icache.demand_avg_miss_latency::total 85472.932432                       # average overall miss latency
system.cpu7.icache.overall_avg_miss_latency::cpu7.inst 85472.932432                       # average overall miss latency
system.cpu7.icache.overall_avg_miss_latency::total 85472.932432                       # average overall miss latency
system.cpu7.icache.blocked_cycles::no_mshrs           74                       # number of cycles access was blocked
system.cpu7.icache.blocked_cycles::no_targets            0                       # number of cycles access was blocked
system.cpu7.icache.blocked::no_mshrs                1                       # number of cycles access was blocked
system.cpu7.icache.blocked::no_targets              0                       # number of cycles access was blocked
system.cpu7.icache.avg_blocked_cycles::no_mshrs           74                       # average number of cycles each access was blocked
system.cpu7.icache.avg_blocked_cycles::no_targets          nan                       # average number of cycles each access was blocked
system.cpu7.icache.fast_writes                      0                       # number of fast writes performed
system.cpu7.icache.cache_copies                     0                       # number of cache copies performed
system.cpu7.icache.ReadReq_mshr_hits::cpu7.inst           22                       # number of ReadReq MSHR hits
system.cpu7.icache.ReadReq_mshr_hits::total           22                       # number of ReadReq MSHR hits
system.cpu7.icache.demand_mshr_hits::cpu7.inst           22                       # number of demand (read+write) MSHR hits
system.cpu7.icache.demand_mshr_hits::total           22                       # number of demand (read+write) MSHR hits
system.cpu7.icache.overall_mshr_hits::cpu7.inst           22                       # number of overall MSHR hits
system.cpu7.icache.overall_mshr_hits::total           22                       # number of overall MSHR hits
system.cpu7.icache.ReadReq_mshr_misses::cpu7.inst           52                       # number of ReadReq MSHR misses
system.cpu7.icache.ReadReq_mshr_misses::total           52                       # number of ReadReq MSHR misses
system.cpu7.icache.demand_mshr_misses::cpu7.inst           52                       # number of demand (read+write) MSHR misses
system.cpu7.icache.demand_mshr_misses::total           52                       # number of demand (read+write) MSHR misses
system.cpu7.icache.overall_mshr_misses::cpu7.inst           52                       # number of overall MSHR misses
system.cpu7.icache.overall_mshr_misses::total           52                       # number of overall MSHR misses
system.cpu7.icache.ReadReq_mshr_miss_latency::cpu7.inst      4352751                       # number of ReadReq MSHR miss cycles
system.cpu7.icache.ReadReq_mshr_miss_latency::total      4352751                       # number of ReadReq MSHR miss cycles
system.cpu7.icache.demand_mshr_miss_latency::cpu7.inst      4352751                       # number of demand (read+write) MSHR miss cycles
system.cpu7.icache.demand_mshr_miss_latency::total      4352751                       # number of demand (read+write) MSHR miss cycles
system.cpu7.icache.overall_mshr_miss_latency::cpu7.inst      4352751                       # number of overall MSHR miss cycles
system.cpu7.icache.overall_mshr_miss_latency::total      4352751                       # number of overall MSHR miss cycles
system.cpu7.icache.ReadReq_mshr_miss_rate::cpu7.inst     0.075253                       # mshr miss rate for ReadReq accesses
system.cpu7.icache.ReadReq_mshr_miss_rate::total     0.075253                       # mshr miss rate for ReadReq accesses
system.cpu7.icache.demand_mshr_miss_rate::cpu7.inst     0.075253                       # mshr miss rate for demand accesses
system.cpu7.icache.demand_mshr_miss_rate::total     0.075253                       # mshr miss rate for demand accesses
system.cpu7.icache.overall_mshr_miss_rate::cpu7.inst     0.075253                       # mshr miss rate for overall accesses
system.cpu7.icache.overall_mshr_miss_rate::total     0.075253                       # mshr miss rate for overall accesses
system.cpu7.icache.ReadReq_avg_mshr_miss_latency::cpu7.inst 83706.750000                       # average ReadReq mshr miss latency
system.cpu7.icache.ReadReq_avg_mshr_miss_latency::total 83706.750000                       # average ReadReq mshr miss latency
system.cpu7.icache.demand_avg_mshr_miss_latency::cpu7.inst 83706.750000                       # average overall mshr miss latency
system.cpu7.icache.demand_avg_mshr_miss_latency::total 83706.750000                       # average overall mshr miss latency
system.cpu7.icache.overall_avg_mshr_miss_latency::cpu7.inst 83706.750000                       # average overall mshr miss latency
system.cpu7.icache.overall_avg_mshr_miss_latency::total 83706.750000                       # average overall mshr miss latency
system.cpu7.icache.no_allocate_misses               0                       # Number of misses that were no-allocate
system.membus.trans_dist::ReadReq                1397                       # Transaction distribution
system.membus.trans_dist::ReadResp               1396                       # Transaction distribution
system.membus.trans_dist::Writeback                 8                       # Transaction distribution
system.membus.trans_dist::UpgradeReq               15                       # Transaction distribution
system.membus.trans_dist::SCUpgradeReq             24                       # Transaction distribution
system.membus.trans_dist::UpgradeResp              39                       # Transaction distribution
system.membus.trans_dist::SCUpgradeFailReq            1                       # Transaction distribution
system.membus.trans_dist::UpgradeFailResp            1                       # Transaction distribution
system.membus.trans_dist::ReadExReq               207                       # Transaction distribution
system.membus.trans_dist::ReadExResp              207                       # Transaction distribution
system.membus.pkt_count_system.cpu0.icache.mem_side::system.mem_ctrls.port         1199                       # Packet count per connected master and slave (bytes)
system.membus.pkt_count_system.cpu0.dcache.mem_side::system.mem_ctrls.port          658                       # Packet count per connected master and slave (bytes)
system.membus.pkt_count_system.cpu1.icache.mem_side::system.mem_ctrls.port          106                       # Packet count per connected master and slave (bytes)
system.membus.pkt_count_system.cpu1.dcache.mem_side::system.mem_ctrls.port           67                       # Packet count per connected master and slave (bytes)
system.membus.pkt_count_system.cpu2.icache.mem_side::system.mem_ctrls.port          112                       # Packet count per connected master and slave (bytes)
system.membus.pkt_count_system.cpu2.dcache.mem_side::system.mem_ctrls.port           74                       # Packet count per connected master and slave (bytes)
system.membus.pkt_count_system.cpu3.icache.mem_side::system.mem_ctrls.port          108                       # Packet count per connected master and slave (bytes)
system.membus.pkt_count_system.cpu3.dcache.mem_side::system.mem_ctrls.port           71                       # Packet count per connected master and slave (bytes)
system.membus.pkt_count_system.cpu4.icache.mem_side::system.mem_ctrls.port          104                       # Packet count per connected master and slave (bytes)
system.membus.pkt_count_system.cpu4.dcache.mem_side::system.mem_ctrls.port           60                       # Packet count per connected master and slave (bytes)
system.membus.pkt_count_system.cpu5.icache.mem_side::system.mem_ctrls.port          104                       # Packet count per connected master and slave (bytes)
system.membus.pkt_count_system.cpu5.dcache.mem_side::system.mem_ctrls.port           57                       # Packet count per connected master and slave (bytes)
system.membus.pkt_count_system.cpu6.icache.mem_side::system.mem_ctrls.port          114                       # Packet count per connected master and slave (bytes)
system.membus.pkt_count_system.cpu6.dcache.mem_side::system.mem_ctrls.port           61                       # Packet count per connected master and slave (bytes)
system.membus.pkt_count_system.cpu7.icache.mem_side::system.mem_ctrls.port          104                       # Packet count per connected master and slave (bytes)
system.membus.pkt_count_system.cpu7.dcache.mem_side::system.mem_ctrls.port           61                       # Packet count per connected master and slave (bytes)
system.membus.pkt_count::total                   3060                       # Packet count per connected master and slave (bytes)
system.membus.pkt_size_system.cpu0.icache.mem_side::system.mem_ctrls.port        38336                       # Cumulative packet size per connected master and slave (bytes)
system.membus.pkt_size_system.cpu0.dcache.mem_side::system.mem_ctrls.port        20608                       # Cumulative packet size per connected master and slave (bytes)
system.membus.pkt_size_system.cpu1.icache.mem_side::system.mem_ctrls.port         3392                       # Cumulative packet size per connected master and slave (bytes)
system.membus.pkt_size_system.cpu1.dcache.mem_side::system.mem_ctrls.port         1024                       # Cumulative packet size per connected master and slave (bytes)
system.membus.pkt_size_system.cpu2.icache.mem_side::system.mem_ctrls.port         3584                       # Cumulative packet size per connected master and slave (bytes)
system.membus.pkt_size_system.cpu2.dcache.mem_side::system.mem_ctrls.port         1024                       # Cumulative packet size per connected master and slave (bytes)
system.membus.pkt_size_system.cpu3.icache.mem_side::system.mem_ctrls.port         3456                       # Cumulative packet size per connected master and slave (bytes)
system.membus.pkt_size_system.cpu3.dcache.mem_side::system.mem_ctrls.port         1024                       # Cumulative packet size per connected master and slave (bytes)
system.membus.pkt_size_system.cpu4.icache.mem_side::system.mem_ctrls.port         3328                       # Cumulative packet size per connected master and slave (bytes)
system.membus.pkt_size_system.cpu4.dcache.mem_side::system.mem_ctrls.port         1088                       # Cumulative packet size per connected master and slave (bytes)
system.membus.pkt_size_system.cpu5.icache.mem_side::system.mem_ctrls.port         3328                       # Cumulative packet size per connected master and slave (bytes)
system.membus.pkt_size_system.cpu5.dcache.mem_side::system.mem_ctrls.port          960                       # Cumulative packet size per connected master and slave (bytes)
system.membus.pkt_size_system.cpu6.icache.mem_side::system.mem_ctrls.port         3648                       # Cumulative packet size per connected master and slave (bytes)
system.membus.pkt_size_system.cpu6.dcache.mem_side::system.mem_ctrls.port         1024                       # Cumulative packet size per connected master and slave (bytes)
system.membus.pkt_size_system.cpu7.icache.mem_side::system.mem_ctrls.port         3328                       # Cumulative packet size per connected master and slave (bytes)
system.membus.pkt_size_system.cpu7.dcache.mem_side::system.mem_ctrls.port         1024                       # Cumulative packet size per connected master and slave (bytes)
system.membus.pkt_size::total                   90176                       # Cumulative packet size per connected master and slave (bytes)
system.membus.snoops                              235                       # Total snoops (count)
system.membus.snoop_fanout::samples              1652                       # Request fanout histogram
system.membus.snoop_fanout::mean                   15                       # Request fanout histogram
system.membus.snoop_fanout::stdev                   0                       # Request fanout histogram
system.membus.snoop_fanout::underflows              0      0.00%      0.00% # Request fanout histogram
system.membus.snoop_fanout::0                       0      0.00%      0.00% # Request fanout histogram
system.membus.snoop_fanout::1                       0      0.00%      0.00% # Request fanout histogram
system.membus.snoop_fanout::2                       0      0.00%      0.00% # Request fanout histogram
system.membus.snoop_fanout::3                       0      0.00%      0.00% # Request fanout histogram
system.membus.snoop_fanout::4                       0      0.00%      0.00% # Request fanout histogram
system.membus.snoop_fanout::5                       0      0.00%      0.00% # Request fanout histogram
system.membus.snoop_fanout::6                       0      0.00%      0.00% # Request fanout histogram
system.membus.snoop_fanout::7                       0      0.00%      0.00% # Request fanout histogram
system.membus.snoop_fanout::8                       0      0.00%      0.00% # Request fanout histogram
system.membus.snoop_fanout::9                       0      0.00%      0.00% # Request fanout histogram
system.membus.snoop_fanout::10                      0      0.00%      0.00% # Request fanout histogram
system.membus.snoop_fanout::11                      0      0.00%      0.00% # Request fanout histogram
system.membus.snoop_fanout::12                      0      0.00%      0.00% # Request fanout histogram
system.membus.snoop_fanout::13                      0      0.00%      0.00% # Request fanout histogram
system.membus.snoop_fanout::14                      0      0.00%      0.00% # Request fanout histogram
system.membus.snoop_fanout::15                   1652    100.00%    100.00% # Request fanout histogram
system.membus.snoop_fanout::16                      0      0.00%    100.00% # Request fanout histogram
system.membus.snoop_fanout::overflows               0      0.00%    100.00% # Request fanout histogram
system.membus.snoop_fanout::min_value              15                       # Request fanout histogram
system.membus.snoop_fanout::max_value              15                       # Request fanout histogram
system.membus.snoop_fanout::total                1652                       # Request fanout histogram
system.membus.reqLayer0.occupancy             2021996                       # Layer occupancy (ticks)
system.membus.reqLayer0.utilization               5.5                       # Layer utilization (%)
system.membus.respLayer1.occupancy            3185250                       # Layer occupancy (ticks)
system.membus.respLayer1.utilization              8.6                       # Layer utilization (%)
system.membus.respLayer2.occupancy            1736245                       # Layer occupancy (ticks)
system.membus.respLayer2.utilization              4.7                       # Layer utilization (%)
system.membus.respLayer5.occupancy             285750                       # Layer occupancy (ticks)
system.membus.respLayer5.utilization              0.8                       # Layer utilization (%)
system.membus.respLayer6.occupancy             247747                       # Layer occupancy (ticks)
system.membus.respLayer6.utilization              0.7                       # Layer utilization (%)
system.membus.respLayer9.occupancy             301750                       # Layer occupancy (ticks)
system.membus.respLayer9.utilization              0.8                       # Layer utilization (%)
system.membus.respLayer10.occupancy            283247                       # Layer occupancy (ticks)
system.membus.respLayer10.utilization             0.8                       # Layer utilization (%)
system.membus.respLayer13.occupancy            290250                       # Layer occupancy (ticks)
system.membus.respLayer13.utilization             0.8                       # Layer utilization (%)
system.membus.respLayer14.occupancy            268746                       # Layer occupancy (ticks)
system.membus.respLayer14.utilization             0.7                       # Layer utilization (%)
system.membus.respLayer17.occupancy            279000                       # Layer occupancy (ticks)
system.membus.respLayer17.utilization             0.8                       # Layer utilization (%)
system.membus.respLayer18.occupancy            209995                       # Layer occupancy (ticks)
system.membus.respLayer18.utilization             0.6                       # Layer utilization (%)
system.membus.respLayer21.occupancy            277000                       # Layer occupancy (ticks)
system.membus.respLayer21.utilization             0.7                       # Layer utilization (%)
system.membus.respLayer22.occupancy            202998                       # Layer occupancy (ticks)
system.membus.respLayer22.utilization             0.5                       # Layer utilization (%)
system.membus.respLayer25.occupancy            301750                       # Layer occupancy (ticks)
system.membus.respLayer25.utilization             0.8                       # Layer utilization (%)
system.membus.respLayer26.occupancy            218746                       # Layer occupancy (ticks)
system.membus.respLayer26.utilization             0.6                       # Layer utilization (%)
system.membus.respLayer29.occupancy            279249                       # Layer occupancy (ticks)
system.membus.respLayer29.utilization             0.8                       # Layer utilization (%)
system.membus.respLayer30.occupancy            207001                       # Layer occupancy (ticks)
system.membus.respLayer30.utilization             0.6                       # Layer utilization (%)

---------- End Simulation Statistics   ----------
