
---------- Begin Simulation Statistics ----------
sim_seconds                                  0.000042                       # Number of seconds simulated
sim_ticks                                    41867000                       # Number of ticks simulated
final_tick                                   41867000                       # Number of ticks from beginning of simulation (restored from checkpoints and never reset)
sim_freq                                 1000000000000                       # Frequency of simulated ticks
host_inst_rate                                 145271                       # Simulator instruction rate (inst/s)
host_op_rate                                   152825                       # Simulator op (including micro ops) rate (op/s)
host_tick_rate                               22602762                       # Simulator tick rate (ticks/s)
host_mem_usage                                 733968                       # Number of bytes of host memory used
host_seconds                                     1.85                       # Real time elapsed on the host
sim_insts                                      269080                       # Number of instructions simulated
sim_ops                                        283074                       # Number of ops (including micro ops) simulated
system.voltage_domain.voltage                       1                       # Voltage in Volts
system.clk_domain.clock                          1000                       # Clock period in ticks
system.mem_ctrls.bytes_read::cpu00.inst         38528                       # Number of bytes read from this memory
system.mem_ctrls.bytes_read::cpu00.data         22080                       # Number of bytes read from this memory
system.mem_ctrls.bytes_read::cpu01.inst          3328                       # Number of bytes read from this memory
system.mem_ctrls.bytes_read::cpu01.data           960                       # Number of bytes read from this memory
system.mem_ctrls.bytes_read::cpu02.inst          3328                       # Number of bytes read from this memory
system.mem_ctrls.bytes_read::cpu02.data           960                       # Number of bytes read from this memory
system.mem_ctrls.bytes_read::cpu03.inst          3328                       # Number of bytes read from this memory
system.mem_ctrls.bytes_read::cpu03.data           960                       # Number of bytes read from this memory
system.mem_ctrls.bytes_read::cpu04.inst          3264                       # Number of bytes read from this memory
system.mem_ctrls.bytes_read::cpu04.data           960                       # Number of bytes read from this memory
system.mem_ctrls.bytes_read::cpu05.inst          3328                       # Number of bytes read from this memory
system.mem_ctrls.bytes_read::cpu05.data           960                       # Number of bytes read from this memory
system.mem_ctrls.bytes_read::cpu06.inst          3392                       # Number of bytes read from this memory
system.mem_ctrls.bytes_read::cpu06.data           960                       # Number of bytes read from this memory
system.mem_ctrls.bytes_read::cpu07.inst          3264                       # Number of bytes read from this memory
system.mem_ctrls.bytes_read::cpu07.data          1024                       # Number of bytes read from this memory
system.mem_ctrls.bytes_read::cpu08.inst          3264                       # Number of bytes read from this memory
system.mem_ctrls.bytes_read::cpu08.data           960                       # Number of bytes read from this memory
system.mem_ctrls.bytes_read::cpu09.inst          3456                       # Number of bytes read from this memory
system.mem_ctrls.bytes_read::cpu09.data           960                       # Number of bytes read from this memory
system.mem_ctrls.bytes_read::cpu10.inst          3392                       # Number of bytes read from this memory
system.mem_ctrls.bytes_read::cpu10.data           960                       # Number of bytes read from this memory
system.mem_ctrls.bytes_read::cpu11.inst          3520                       # Number of bytes read from this memory
system.mem_ctrls.bytes_read::cpu11.data           960                       # Number of bytes read from this memory
system.mem_ctrls.bytes_read::cpu12.inst          3584                       # Number of bytes read from this memory
system.mem_ctrls.bytes_read::cpu12.data          1024                       # Number of bytes read from this memory
system.mem_ctrls.bytes_read::cpu13.inst          3456                       # Number of bytes read from this memory
system.mem_ctrls.bytes_read::cpu13.data           960                       # Number of bytes read from this memory
system.mem_ctrls.bytes_read::cpu14.inst          3584                       # Number of bytes read from this memory
system.mem_ctrls.bytes_read::cpu14.data           960                       # Number of bytes read from this memory
system.mem_ctrls.bytes_read::cpu15.inst          3392                       # Number of bytes read from this memory
system.mem_ctrls.bytes_read::cpu15.data          1024                       # Number of bytes read from this memory
system.mem_ctrls.bytes_read::total             126080                       # Number of bytes read from this memory
system.mem_ctrls.bytes_inst_read::cpu00.inst        38528                       # Number of instructions bytes read from this memory
system.mem_ctrls.bytes_inst_read::cpu01.inst         3328                       # Number of instructions bytes read from this memory
system.mem_ctrls.bytes_inst_read::cpu02.inst         3328                       # Number of instructions bytes read from this memory
system.mem_ctrls.bytes_inst_read::cpu03.inst         3328                       # Number of instructions bytes read from this memory
system.mem_ctrls.bytes_inst_read::cpu04.inst         3264                       # Number of instructions bytes read from this memory
system.mem_ctrls.bytes_inst_read::cpu05.inst         3328                       # Number of instructions bytes read from this memory
system.mem_ctrls.bytes_inst_read::cpu06.inst         3392                       # Number of instructions bytes read from this memory
system.mem_ctrls.bytes_inst_read::cpu07.inst         3264                       # Number of instructions bytes read from this memory
system.mem_ctrls.bytes_inst_read::cpu08.inst         3264                       # Number of instructions bytes read from this memory
system.mem_ctrls.bytes_inst_read::cpu09.inst         3456                       # Number of instructions bytes read from this memory
system.mem_ctrls.bytes_inst_read::cpu10.inst         3392                       # Number of instructions bytes read from this memory
system.mem_ctrls.bytes_inst_read::cpu11.inst         3520                       # Number of instructions bytes read from this memory
system.mem_ctrls.bytes_inst_read::cpu12.inst         3584                       # Number of instructions bytes read from this memory
system.mem_ctrls.bytes_inst_read::cpu13.inst         3456                       # Number of instructions bytes read from this memory
system.mem_ctrls.bytes_inst_read::cpu14.inst         3584                       # Number of instructions bytes read from this memory
system.mem_ctrls.bytes_inst_read::cpu15.inst         3392                       # Number of instructions bytes read from this memory
system.mem_ctrls.bytes_inst_read::total         89408                       # Number of instructions bytes read from this memory
system.mem_ctrls.bytes_written::writebacks         1024                       # Number of bytes written to this memory
system.mem_ctrls.bytes_written::total            1024                       # Number of bytes written to this memory
system.mem_ctrls.num_reads::cpu00.inst            602                       # Number of read requests responded to by this memory
system.mem_ctrls.num_reads::cpu00.data            345                       # Number of read requests responded to by this memory
system.mem_ctrls.num_reads::cpu01.inst             52                       # Number of read requests responded to by this memory
system.mem_ctrls.num_reads::cpu01.data             15                       # Number of read requests responded to by this memory
system.mem_ctrls.num_reads::cpu02.inst             52                       # Number of read requests responded to by this memory
system.mem_ctrls.num_reads::cpu02.data             15                       # Number of read requests responded to by this memory
system.mem_ctrls.num_reads::cpu03.inst             52                       # Number of read requests responded to by this memory
system.mem_ctrls.num_reads::cpu03.data             15                       # Number of read requests responded to by this memory
system.mem_ctrls.num_reads::cpu04.inst             51                       # Number of read requests responded to by this memory
system.mem_ctrls.num_reads::cpu04.data             15                       # Number of read requests responded to by this memory
system.mem_ctrls.num_reads::cpu05.inst             52                       # Number of read requests responded to by this memory
system.mem_ctrls.num_reads::cpu05.data             15                       # Number of read requests responded to by this memory
system.mem_ctrls.num_reads::cpu06.inst             53                       # Number of read requests responded to by this memory
system.mem_ctrls.num_reads::cpu06.data             15                       # Number of read requests responded to by this memory
system.mem_ctrls.num_reads::cpu07.inst             51                       # Number of read requests responded to by this memory
system.mem_ctrls.num_reads::cpu07.data             16                       # Number of read requests responded to by this memory
system.mem_ctrls.num_reads::cpu08.inst             51                       # Number of read requests responded to by this memory
system.mem_ctrls.num_reads::cpu08.data             15                       # Number of read requests responded to by this memory
system.mem_ctrls.num_reads::cpu09.inst             54                       # Number of read requests responded to by this memory
system.mem_ctrls.num_reads::cpu09.data             15                       # Number of read requests responded to by this memory
system.mem_ctrls.num_reads::cpu10.inst             53                       # Number of read requests responded to by this memory
system.mem_ctrls.num_reads::cpu10.data             15                       # Number of read requests responded to by this memory
system.mem_ctrls.num_reads::cpu11.inst             55                       # Number of read requests responded to by this memory
system.mem_ctrls.num_reads::cpu11.data             15                       # Number of read requests responded to by this memory
system.mem_ctrls.num_reads::cpu12.inst             56                       # Number of read requests responded to by this memory
system.mem_ctrls.num_reads::cpu12.data             16                       # Number of read requests responded to by this memory
system.mem_ctrls.num_reads::cpu13.inst             54                       # Number of read requests responded to by this memory
system.mem_ctrls.num_reads::cpu13.data             15                       # Number of read requests responded to by this memory
system.mem_ctrls.num_reads::cpu14.inst             56                       # Number of read requests responded to by this memory
system.mem_ctrls.num_reads::cpu14.data             15                       # Number of read requests responded to by this memory
system.mem_ctrls.num_reads::cpu15.inst             53                       # Number of read requests responded to by this memory
system.mem_ctrls.num_reads::cpu15.data             16                       # Number of read requests responded to by this memory
system.mem_ctrls.num_reads::total                1970                       # Number of read requests responded to by this memory
system.mem_ctrls.num_writes::writebacks            16                       # Number of write requests responded to by this memory
system.mem_ctrls.num_writes::total                 16                       # Number of write requests responded to by this memory
system.mem_ctrls.bw_read::cpu00.inst        920247450                       # Total read bandwidth from this memory (bytes/s)
system.mem_ctrls.bw_read::cpu00.data        527384336                       # Total read bandwidth from this memory (bytes/s)
system.mem_ctrls.bw_read::cpu01.inst         79489813                       # Total read bandwidth from this memory (bytes/s)
system.mem_ctrls.bw_read::cpu01.data         22929754                       # Total read bandwidth from this memory (bytes/s)
system.mem_ctrls.bw_read::cpu02.inst         79489813                       # Total read bandwidth from this memory (bytes/s)
system.mem_ctrls.bw_read::cpu02.data         22929754                       # Total read bandwidth from this memory (bytes/s)
system.mem_ctrls.bw_read::cpu03.inst         79489813                       # Total read bandwidth from this memory (bytes/s)
system.mem_ctrls.bw_read::cpu03.data         22929754                       # Total read bandwidth from this memory (bytes/s)
system.mem_ctrls.bw_read::cpu04.inst         77961163                       # Total read bandwidth from this memory (bytes/s)
system.mem_ctrls.bw_read::cpu04.data         22929754                       # Total read bandwidth from this memory (bytes/s)
system.mem_ctrls.bw_read::cpu05.inst         79489813                       # Total read bandwidth from this memory (bytes/s)
system.mem_ctrls.bw_read::cpu05.data         22929754                       # Total read bandwidth from this memory (bytes/s)
system.mem_ctrls.bw_read::cpu06.inst         81018463                       # Total read bandwidth from this memory (bytes/s)
system.mem_ctrls.bw_read::cpu06.data         22929754                       # Total read bandwidth from this memory (bytes/s)
system.mem_ctrls.bw_read::cpu07.inst         77961163                       # Total read bandwidth from this memory (bytes/s)
system.mem_ctrls.bw_read::cpu07.data         24458404                       # Total read bandwidth from this memory (bytes/s)
system.mem_ctrls.bw_read::cpu08.inst         77961163                       # Total read bandwidth from this memory (bytes/s)
system.mem_ctrls.bw_read::cpu08.data         22929754                       # Total read bandwidth from this memory (bytes/s)
system.mem_ctrls.bw_read::cpu09.inst         82547113                       # Total read bandwidth from this memory (bytes/s)
system.mem_ctrls.bw_read::cpu09.data         22929754                       # Total read bandwidth from this memory (bytes/s)
system.mem_ctrls.bw_read::cpu10.inst         81018463                       # Total read bandwidth from this memory (bytes/s)
system.mem_ctrls.bw_read::cpu10.data         22929754                       # Total read bandwidth from this memory (bytes/s)
system.mem_ctrls.bw_read::cpu11.inst         84075764                       # Total read bandwidth from this memory (bytes/s)
system.mem_ctrls.bw_read::cpu11.data         22929754                       # Total read bandwidth from this memory (bytes/s)
system.mem_ctrls.bw_read::cpu12.inst         85604414                       # Total read bandwidth from this memory (bytes/s)
system.mem_ctrls.bw_read::cpu12.data         24458404                       # Total read bandwidth from this memory (bytes/s)
system.mem_ctrls.bw_read::cpu13.inst         82547113                       # Total read bandwidth from this memory (bytes/s)
system.mem_ctrls.bw_read::cpu13.data         22929754                       # Total read bandwidth from this memory (bytes/s)
system.mem_ctrls.bw_read::cpu14.inst         85604414                       # Total read bandwidth from this memory (bytes/s)
system.mem_ctrls.bw_read::cpu14.data         22929754                       # Total read bandwidth from this memory (bytes/s)
system.mem_ctrls.bw_read::cpu15.inst         81018463                       # Total read bandwidth from this memory (bytes/s)
system.mem_ctrls.bw_read::cpu15.data         24458404                       # Total read bandwidth from this memory (bytes/s)
system.mem_ctrls.bw_read::total            3011440992                       # Total read bandwidth from this memory (bytes/s)
system.mem_ctrls.bw_inst_read::cpu00.inst    920247450                       # Instruction read bandwidth from this memory (bytes/s)
system.mem_ctrls.bw_inst_read::cpu01.inst     79489813                       # Instruction read bandwidth from this memory (bytes/s)
system.mem_ctrls.bw_inst_read::cpu02.inst     79489813                       # Instruction read bandwidth from this memory (bytes/s)
system.mem_ctrls.bw_inst_read::cpu03.inst     79489813                       # Instruction read bandwidth from this memory (bytes/s)
system.mem_ctrls.bw_inst_read::cpu04.inst     77961163                       # Instruction read bandwidth from this memory (bytes/s)
system.mem_ctrls.bw_inst_read::cpu05.inst     79489813                       # Instruction read bandwidth from this memory (bytes/s)
system.mem_ctrls.bw_inst_read::cpu06.inst     81018463                       # Instruction read bandwidth from this memory (bytes/s)
system.mem_ctrls.bw_inst_read::cpu07.inst     77961163                       # Instruction read bandwidth from this memory (bytes/s)
system.mem_ctrls.bw_inst_read::cpu08.inst     77961163                       # Instruction read bandwidth from this memory (bytes/s)
system.mem_ctrls.bw_inst_read::cpu09.inst     82547113                       # Instruction read bandwidth from this memory (bytes/s)
system.mem_ctrls.bw_inst_read::cpu10.inst     81018463                       # Instruction read bandwidth from this memory (bytes/s)
system.mem_ctrls.bw_inst_read::cpu11.inst     84075764                       # Instruction read bandwidth from this memory (bytes/s)
system.mem_ctrls.bw_inst_read::cpu12.inst     85604414                       # Instruction read bandwidth from this memory (bytes/s)
system.mem_ctrls.bw_inst_read::cpu13.inst     82547113                       # Instruction read bandwidth from this memory (bytes/s)
system.mem_ctrls.bw_inst_read::cpu14.inst     85604414                       # Instruction read bandwidth from this memory (bytes/s)
system.mem_ctrls.bw_inst_read::cpu15.inst     81018463                       # Instruction read bandwidth from this memory (bytes/s)
system.mem_ctrls.bw_inst_read::total       2135524399                       # Instruction read bandwidth from this memory (bytes/s)
system.mem_ctrls.bw_write::writebacks        24458404                       # Write bandwidth from this memory (bytes/s)
system.mem_ctrls.bw_write::total             24458404                       # Write bandwidth from this memory (bytes/s)
system.mem_ctrls.bw_total::writebacks        24458404                       # Total bandwidth to/from this memory (bytes/s)
system.mem_ctrls.bw_total::cpu00.inst       920247450                       # Total bandwidth to/from this memory (bytes/s)
system.mem_ctrls.bw_total::cpu00.data       527384336                       # Total bandwidth to/from this memory (bytes/s)
system.mem_ctrls.bw_total::cpu01.inst        79489813                       # Total bandwidth to/from this memory (bytes/s)
system.mem_ctrls.bw_total::cpu01.data        22929754                       # Total bandwidth to/from this memory (bytes/s)
system.mem_ctrls.bw_total::cpu02.inst        79489813                       # Total bandwidth to/from this memory (bytes/s)
system.mem_ctrls.bw_total::cpu02.data        22929754                       # Total bandwidth to/from this memory (bytes/s)
system.mem_ctrls.bw_total::cpu03.inst        79489813                       # Total bandwidth to/from this memory (bytes/s)
system.mem_ctrls.bw_total::cpu03.data        22929754                       # Total bandwidth to/from this memory (bytes/s)
system.mem_ctrls.bw_total::cpu04.inst        77961163                       # Total bandwidth to/from this memory (bytes/s)
system.mem_ctrls.bw_total::cpu04.data        22929754                       # Total bandwidth to/from this memory (bytes/s)
system.mem_ctrls.bw_total::cpu05.inst        79489813                       # Total bandwidth to/from this memory (bytes/s)
system.mem_ctrls.bw_total::cpu05.data        22929754                       # Total bandwidth to/from this memory (bytes/s)
system.mem_ctrls.bw_total::cpu06.inst        81018463                       # Total bandwidth to/from this memory (bytes/s)
system.mem_ctrls.bw_total::cpu06.data        22929754                       # Total bandwidth to/from this memory (bytes/s)
system.mem_ctrls.bw_total::cpu07.inst        77961163                       # Total bandwidth to/from this memory (bytes/s)
system.mem_ctrls.bw_total::cpu07.data        24458404                       # Total bandwidth to/from this memory (bytes/s)
system.mem_ctrls.bw_total::cpu08.inst        77961163                       # Total bandwidth to/from this memory (bytes/s)
system.mem_ctrls.bw_total::cpu08.data        22929754                       # Total bandwidth to/from this memory (bytes/s)
system.mem_ctrls.bw_total::cpu09.inst        82547113                       # Total bandwidth to/from this memory (bytes/s)
system.mem_ctrls.bw_total::cpu09.data        22929754                       # Total bandwidth to/from this memory (bytes/s)
system.mem_ctrls.bw_total::cpu10.inst        81018463                       # Total bandwidth to/from this memory (bytes/s)
system.mem_ctrls.bw_total::cpu10.data        22929754                       # Total bandwidth to/from this memory (bytes/s)
system.mem_ctrls.bw_total::cpu11.inst        84075764                       # Total bandwidth to/from this memory (bytes/s)
system.mem_ctrls.bw_total::cpu11.data        22929754                       # Total bandwidth to/from this memory (bytes/s)
system.mem_ctrls.bw_total::cpu12.inst        85604414                       # Total bandwidth to/from this memory (bytes/s)
system.mem_ctrls.bw_total::cpu12.data        24458404                       # Total bandwidth to/from this memory (bytes/s)
system.mem_ctrls.bw_total::cpu13.inst        82547113                       # Total bandwidth to/from this memory (bytes/s)
system.mem_ctrls.bw_total::cpu13.data        22929754                       # Total bandwidth to/from this memory (bytes/s)
system.mem_ctrls.bw_total::cpu14.inst        85604414                       # Total bandwidth to/from this memory (bytes/s)
system.mem_ctrls.bw_total::cpu14.data        22929754                       # Total bandwidth to/from this memory (bytes/s)
system.mem_ctrls.bw_total::cpu15.inst        81018463                       # Total bandwidth to/from this memory (bytes/s)
system.mem_ctrls.bw_total::cpu15.data        24458404                       # Total bandwidth to/from this memory (bytes/s)
system.mem_ctrls.bw_total::total           3035899396                       # Total bandwidth to/from this memory (bytes/s)
system.mem_ctrls.readReqs                        1971                       # Number of read requests accepted
system.mem_ctrls.writeReqs                         16                       # Number of write requests accepted
system.mem_ctrls.readBursts                      1971                       # Number of DRAM read bursts, including those serviced by the write queue
system.mem_ctrls.writeBursts                       16                       # Number of DRAM write bursts, including those merged in the write queue
system.mem_ctrls.bytesReadDRAM                 126144                       # Total number of bytes read from DRAM
system.mem_ctrls.bytesReadWrQ                       0                       # Total number of bytes read from write queue
system.mem_ctrls.bytesWritten                       0                       # Total number of bytes written to DRAM
system.mem_ctrls.bytesReadSys                  126144                       # Total read bytes from the system interface side
system.mem_ctrls.bytesWrittenSys                 1024                       # Total written bytes from the system interface side
system.mem_ctrls.servicedByWrQ                      0                       # Number of DRAM read bursts serviced by the write queue
system.mem_ctrls.mergedWrBursts                     0                       # Number of DRAM write bursts merged with an existing one
system.mem_ctrls.neitherReadNorWriteReqs           12                       # Number of requests that are neither read nor write
system.mem_ctrls.perBankRdBursts::0               258                       # Per bank write bursts
system.mem_ctrls.perBankRdBursts::1               606                       # Per bank write bursts
system.mem_ctrls.perBankRdBursts::2               308                       # Per bank write bursts
system.mem_ctrls.perBankRdBursts::3               227                       # Per bank write bursts
system.mem_ctrls.perBankRdBursts::4                82                       # Per bank write bursts
system.mem_ctrls.perBankRdBursts::5                83                       # Per bank write bursts
system.mem_ctrls.perBankRdBursts::6               157                       # Per bank write bursts
system.mem_ctrls.perBankRdBursts::7                33                       # Per bank write bursts
system.mem_ctrls.perBankRdBursts::8                14                       # Per bank write bursts
system.mem_ctrls.perBankRdBursts::9                10                       # Per bank write bursts
system.mem_ctrls.perBankRdBursts::10                0                       # Per bank write bursts
system.mem_ctrls.perBankRdBursts::11               14                       # Per bank write bursts
system.mem_ctrls.perBankRdBursts::12                9                       # Per bank write bursts
system.mem_ctrls.perBankRdBursts::13               38                       # Per bank write bursts
system.mem_ctrls.perBankRdBursts::14               40                       # Per bank write bursts
system.mem_ctrls.perBankRdBursts::15               92                       # Per bank write bursts
system.mem_ctrls.perBankWrBursts::0                 0                       # Per bank write bursts
system.mem_ctrls.perBankWrBursts::1                 0                       # Per bank write bursts
system.mem_ctrls.perBankWrBursts::2                 0                       # Per bank write bursts
system.mem_ctrls.perBankWrBursts::3                 0                       # Per bank write bursts
system.mem_ctrls.perBankWrBursts::4                 0                       # Per bank write bursts
system.mem_ctrls.perBankWrBursts::5                 0                       # Per bank write bursts
system.mem_ctrls.perBankWrBursts::6                 0                       # Per bank write bursts
system.mem_ctrls.perBankWrBursts::7                 0                       # Per bank write bursts
system.mem_ctrls.perBankWrBursts::8                 0                       # Per bank write bursts
system.mem_ctrls.perBankWrBursts::9                 0                       # Per bank write bursts
system.mem_ctrls.perBankWrBursts::10                0                       # Per bank write bursts
system.mem_ctrls.perBankWrBursts::11                0                       # Per bank write bursts
system.mem_ctrls.perBankWrBursts::12                0                       # Per bank write bursts
system.mem_ctrls.perBankWrBursts::13                0                       # Per bank write bursts
system.mem_ctrls.perBankWrBursts::14                0                       # Per bank write bursts
system.mem_ctrls.perBankWrBursts::15                0                       # Per bank write bursts
system.mem_ctrls.numRdRetry                        36                       # Number of times read queue was full causing retry
system.mem_ctrls.numWrRetry                         0                       # Number of times write queue was full causing retry
system.mem_ctrls.totGap                      41858500                       # Total gap between requests
system.mem_ctrls.readPktSize::0                     0                       # Read request sizes (log2)
system.mem_ctrls.readPktSize::1                     0                       # Read request sizes (log2)
system.mem_ctrls.readPktSize::2                     0                       # Read request sizes (log2)
system.mem_ctrls.readPktSize::3                     0                       # Read request sizes (log2)
system.mem_ctrls.readPktSize::4                     0                       # Read request sizes (log2)
system.mem_ctrls.readPktSize::5                     0                       # Read request sizes (log2)
system.mem_ctrls.readPktSize::6                  1971                       # Read request sizes (log2)
system.mem_ctrls.writePktSize::0                    0                       # Write request sizes (log2)
system.mem_ctrls.writePktSize::1                    0                       # Write request sizes (log2)
system.mem_ctrls.writePktSize::2                    0                       # Write request sizes (log2)
system.mem_ctrls.writePktSize::3                    0                       # Write request sizes (log2)
system.mem_ctrls.writePktSize::4                    0                       # Write request sizes (log2)
system.mem_ctrls.writePktSize::5                    0                       # Write request sizes (log2)
system.mem_ctrls.writePktSize::6                   16                       # Write request sizes (log2)
system.mem_ctrls.rdQLenPdf::0                     464                       # What read queue length does an incoming req see
system.mem_ctrls.rdQLenPdf::1                     314                       # What read queue length does an incoming req see
system.mem_ctrls.rdQLenPdf::2                     115                       # What read queue length does an incoming req see
system.mem_ctrls.rdQLenPdf::3                      60                       # What read queue length does an incoming req see
system.mem_ctrls.rdQLenPdf::4                      46                       # What read queue length does an incoming req see
system.mem_ctrls.rdQLenPdf::5                      62                       # What read queue length does an incoming req see
system.mem_ctrls.rdQLenPdf::6                      64                       # What read queue length does an incoming req see
system.mem_ctrls.rdQLenPdf::7                      70                       # What read queue length does an incoming req see
system.mem_ctrls.rdQLenPdf::8                      91                       # What read queue length does an incoming req see
system.mem_ctrls.rdQLenPdf::9                      67                       # What read queue length does an incoming req see
system.mem_ctrls.rdQLenPdf::10                     71                       # What read queue length does an incoming req see
system.mem_ctrls.rdQLenPdf::11                     71                       # What read queue length does an incoming req see
system.mem_ctrls.rdQLenPdf::12                     59                       # What read queue length does an incoming req see
system.mem_ctrls.rdQLenPdf::13                     49                       # What read queue length does an incoming req see
system.mem_ctrls.rdQLenPdf::14                     39                       # What read queue length does an incoming req see
system.mem_ctrls.rdQLenPdf::15                     28                       # What read queue length does an incoming req see
system.mem_ctrls.rdQLenPdf::16                     23                       # What read queue length does an incoming req see
system.mem_ctrls.rdQLenPdf::17                     28                       # What read queue length does an incoming req see
system.mem_ctrls.rdQLenPdf::18                     17                       # What read queue length does an incoming req see
system.mem_ctrls.rdQLenPdf::19                     19                       # What read queue length does an incoming req see
system.mem_ctrls.rdQLenPdf::20                     28                       # What read queue length does an incoming req see
system.mem_ctrls.rdQLenPdf::21                     12                       # What read queue length does an incoming req see
system.mem_ctrls.rdQLenPdf::22                     10                       # What read queue length does an incoming req see
system.mem_ctrls.rdQLenPdf::23                     16                       # What read queue length does an incoming req see
system.mem_ctrls.rdQLenPdf::24                     24                       # What read queue length does an incoming req see
system.mem_ctrls.rdQLenPdf::25                     21                       # What read queue length does an incoming req see
system.mem_ctrls.rdQLenPdf::26                     13                       # What read queue length does an incoming req see
system.mem_ctrls.rdQLenPdf::27                     20                       # What read queue length does an incoming req see
system.mem_ctrls.rdQLenPdf::28                     14                       # What read queue length does an incoming req see
system.mem_ctrls.rdQLenPdf::29                     11                       # What read queue length does an incoming req see
system.mem_ctrls.rdQLenPdf::30                      4                       # What read queue length does an incoming req see
system.mem_ctrls.rdQLenPdf::31                     41                       # What read queue length does an incoming req see
system.mem_ctrls.wrQLenPdf::0                       1                       # What write queue length does an incoming req see
system.mem_ctrls.wrQLenPdf::1                       1                       # What write queue length does an incoming req see
system.mem_ctrls.wrQLenPdf::2                       1                       # What write queue length does an incoming req see
system.mem_ctrls.wrQLenPdf::3                       1                       # What write queue length does an incoming req see
system.mem_ctrls.wrQLenPdf::4                       1                       # What write queue length does an incoming req see
system.mem_ctrls.wrQLenPdf::5                       1                       # What write queue length does an incoming req see
system.mem_ctrls.wrQLenPdf::6                       1                       # What write queue length does an incoming req see
system.mem_ctrls.wrQLenPdf::7                       1                       # What write queue length does an incoming req see
system.mem_ctrls.wrQLenPdf::8                       1                       # What write queue length does an incoming req see
system.mem_ctrls.wrQLenPdf::9                       1                       # What write queue length does an incoming req see
system.mem_ctrls.wrQLenPdf::10                      1                       # What write queue length does an incoming req see
system.mem_ctrls.wrQLenPdf::11                      1                       # What write queue length does an incoming req see
system.mem_ctrls.wrQLenPdf::12                      1                       # What write queue length does an incoming req see
system.mem_ctrls.wrQLenPdf::13                      1                       # What write queue length does an incoming req see
system.mem_ctrls.wrQLenPdf::14                      1                       # What write queue length does an incoming req see
system.mem_ctrls.wrQLenPdf::15                      1                       # What write queue length does an incoming req see
system.mem_ctrls.wrQLenPdf::16                      0                       # What write queue length does an incoming req see
system.mem_ctrls.wrQLenPdf::17                      0                       # What write queue length does an incoming req see
system.mem_ctrls.wrQLenPdf::18                      0                       # What write queue length does an incoming req see
system.mem_ctrls.wrQLenPdf::19                      0                       # What write queue length does an incoming req see
system.mem_ctrls.wrQLenPdf::20                      0                       # What write queue length does an incoming req see
system.mem_ctrls.wrQLenPdf::21                      0                       # What write queue length does an incoming req see
system.mem_ctrls.wrQLenPdf::22                      0                       # What write queue length does an incoming req see
system.mem_ctrls.wrQLenPdf::23                      0                       # What write queue length does an incoming req see
system.mem_ctrls.wrQLenPdf::24                      0                       # What write queue length does an incoming req see
system.mem_ctrls.wrQLenPdf::25                      0                       # What write queue length does an incoming req see
system.mem_ctrls.wrQLenPdf::26                      0                       # What write queue length does an incoming req see
system.mem_ctrls.wrQLenPdf::27                      0                       # What write queue length does an incoming req see
system.mem_ctrls.wrQLenPdf::28                      0                       # What write queue length does an incoming req see
system.mem_ctrls.wrQLenPdf::29                      0                       # What write queue length does an incoming req see
system.mem_ctrls.wrQLenPdf::30                      0                       # What write queue length does an incoming req see
system.mem_ctrls.wrQLenPdf::31                      0                       # What write queue length does an incoming req see
system.mem_ctrls.wrQLenPdf::32                      0                       # What write queue length does an incoming req see
system.mem_ctrls.wrQLenPdf::33                      0                       # What write queue length does an incoming req see
system.mem_ctrls.wrQLenPdf::34                      0                       # What write queue length does an incoming req see
system.mem_ctrls.wrQLenPdf::35                      0                       # What write queue length does an incoming req see
system.mem_ctrls.wrQLenPdf::36                      0                       # What write queue length does an incoming req see
system.mem_ctrls.wrQLenPdf::37                      0                       # What write queue length does an incoming req see
system.mem_ctrls.wrQLenPdf::38                      0                       # What write queue length does an incoming req see
system.mem_ctrls.wrQLenPdf::39                      0                       # What write queue length does an incoming req see
system.mem_ctrls.wrQLenPdf::40                      0                       # What write queue length does an incoming req see
system.mem_ctrls.wrQLenPdf::41                      0                       # What write queue length does an incoming req see
system.mem_ctrls.wrQLenPdf::42                      0                       # What write queue length does an incoming req see
system.mem_ctrls.wrQLenPdf::43                      0                       # What write queue length does an incoming req see
system.mem_ctrls.wrQLenPdf::44                      0                       # What write queue length does an incoming req see
system.mem_ctrls.wrQLenPdf::45                      0                       # What write queue length does an incoming req see
system.mem_ctrls.wrQLenPdf::46                      0                       # What write queue length does an incoming req see
system.mem_ctrls.wrQLenPdf::47                      0                       # What write queue length does an incoming req see
system.mem_ctrls.wrQLenPdf::48                      0                       # What write queue length does an incoming req see
system.mem_ctrls.wrQLenPdf::49                      0                       # What write queue length does an incoming req see
system.mem_ctrls.wrQLenPdf::50                      0                       # What write queue length does an incoming req see
system.mem_ctrls.wrQLenPdf::51                      0                       # What write queue length does an incoming req see
system.mem_ctrls.wrQLenPdf::52                      0                       # What write queue length does an incoming req see
system.mem_ctrls.wrQLenPdf::53                      0                       # What write queue length does an incoming req see
system.mem_ctrls.wrQLenPdf::54                      0                       # What write queue length does an incoming req see
system.mem_ctrls.wrQLenPdf::55                      0                       # What write queue length does an incoming req see
system.mem_ctrls.wrQLenPdf::56                      0                       # What write queue length does an incoming req see
system.mem_ctrls.wrQLenPdf::57                      0                       # What write queue length does an incoming req see
system.mem_ctrls.wrQLenPdf::58                      0                       # What write queue length does an incoming req see
system.mem_ctrls.wrQLenPdf::59                      0                       # What write queue length does an incoming req see
system.mem_ctrls.wrQLenPdf::60                      0                       # What write queue length does an incoming req see
system.mem_ctrls.wrQLenPdf::61                      0                       # What write queue length does an incoming req see
system.mem_ctrls.wrQLenPdf::62                      0                       # What write queue length does an incoming req see
system.mem_ctrls.wrQLenPdf::63                      0                       # What write queue length does an incoming req see
system.mem_ctrls.bytesPerActivate::samples          409                       # Bytes accessed per row activation
system.mem_ctrls.bytesPerActivate::mean    303.256724                       # Bytes accessed per row activation
system.mem_ctrls.bytesPerActivate::gmean   164.477550                       # Bytes accessed per row activation
system.mem_ctrls.bytesPerActivate::stdev   347.652400                       # Bytes accessed per row activation
system.mem_ctrls.bytesPerActivate::0-127          194     47.43%     47.43% # Bytes accessed per row activation
system.mem_ctrls.bytesPerActivate::128-255           74     18.09%     65.53% # Bytes accessed per row activation
system.mem_ctrls.bytesPerActivate::256-383           28      6.85%     72.37% # Bytes accessed per row activation
system.mem_ctrls.bytesPerActivate::384-511           18      4.40%     76.77% # Bytes accessed per row activation
system.mem_ctrls.bytesPerActivate::512-639           11      2.69%     79.46% # Bytes accessed per row activation
system.mem_ctrls.bytesPerActivate::640-767           13      3.18%     82.64% # Bytes accessed per row activation
system.mem_ctrls.bytesPerActivate::768-895            7      1.71%     84.35% # Bytes accessed per row activation
system.mem_ctrls.bytesPerActivate::896-1023            9      2.20%     86.55% # Bytes accessed per row activation
system.mem_ctrls.bytesPerActivate::1024-1151           55     13.45%    100.00% # Bytes accessed per row activation
system.mem_ctrls.bytesPerActivate::total          409                       # Bytes accessed per row activation
system.mem_ctrls.totQLat                     89041000                       # Total ticks spent queuing
system.mem_ctrls.totMemAccLat               125997250                       # Total ticks spent from burst creation until serviced by the DRAM
system.mem_ctrls.totBusLat                    9855000                       # Total ticks spent in databus transfers
system.mem_ctrls.avgQLat                     45175.55                       # Average queueing delay per DRAM burst
system.mem_ctrls.avgBusLat                    5000.00                       # Average bus latency per DRAM burst
system.mem_ctrls.avgMemAccLat                63925.55                       # Average memory access latency per DRAM burst
system.mem_ctrls.avgRdBW                      3012.97                       # Average DRAM read bandwidth in MiByte/s
system.mem_ctrls.avgWrBW                         0.00                       # Average achieved write bandwidth in MiByte/s
system.mem_ctrls.avgRdBWSys                   3012.97                       # Average system read bandwidth in MiByte/s
system.mem_ctrls.avgWrBWSys                     24.46                       # Average system write bandwidth in MiByte/s
system.mem_ctrls.peakBW                      12800.00                       # Theoretical peak bandwidth in MiByte/s
system.mem_ctrls.busUtil                        23.54                       # Data bus utilization in percentage
system.mem_ctrls.busUtilRead                    23.54                       # Data bus utilization in percentage for reads
system.mem_ctrls.busUtilWrite                    0.00                       # Data bus utilization in percentage for writes
system.mem_ctrls.avgRdQLen                       4.08                       # Average read queue length when enqueuing
system.mem_ctrls.avgWrQLen                       3.59                       # Average write queue length when enqueuing
system.mem_ctrls.readRowHits                     1551                       # Number of row buffer hits during reads
system.mem_ctrls.writeRowHits                       0                       # Number of row buffer hits during writes
system.mem_ctrls.readRowHitRate                 78.69                       # Row buffer hit rate for reads
system.mem_ctrls.writeRowHitRate                 0.00                       # Row buffer hit rate for writes
system.mem_ctrls.avgGap                      21066.18                       # Average gap between requests
system.mem_ctrls.pageHitRate                    78.06                       # Row buffer hit rate, read and write combined
system.mem_ctrls_0.actEnergy                  2721600                       # Energy for activate commands per rank (pJ)
system.mem_ctrls_0.preEnergy                  1485000                       # Energy for precharge commands per rank (pJ)
system.mem_ctrls_0.readEnergy                13228800                       # Energy for read commands per rank (pJ)
system.mem_ctrls_0.writeEnergy                      0                       # Energy for write commands per rank (pJ)
system.mem_ctrls_0.refreshEnergy              2542800                       # Energy for refresh commands per rank (pJ)
system.mem_ctrls_0.actBackEnergy             26636670                       # Energy for active background per rank (pJ)
system.mem_ctrls_0.preBackEnergy               176250                       # Energy for precharge background per rank (pJ)
system.mem_ctrls_0.totalEnergy               46791120                       # Total energy per rank (pJ)
system.mem_ctrls_0.averagePower           1192.548218                       # Core power per rank (mW)
system.mem_ctrls_0.memoryStateTime::IDLE       169500                       # Time in different power states
system.mem_ctrls_0.memoryStateTime::REF       1300000                       # Time in different power states
system.mem_ctrls_0.memoryStateTime::PRE_PDN            0                       # Time in different power states
system.mem_ctrls_0.memoryStateTime::ACT      37779500                       # Time in different power states
system.mem_ctrls_0.memoryStateTime::ACT_PDN            0                       # Time in different power states
system.mem_ctrls_1.actEnergy                   211680                       # Energy for activate commands per rank (pJ)
system.mem_ctrls_1.preEnergy                   115500                       # Energy for precharge commands per rank (pJ)
system.mem_ctrls_1.readEnergy                 1310400                       # Energy for read commands per rank (pJ)
system.mem_ctrls_1.writeEnergy                      0                       # Energy for write commands per rank (pJ)
system.mem_ctrls_1.refreshEnergy              2542800                       # Energy for refresh commands per rank (pJ)
system.mem_ctrls_1.actBackEnergy             25231050                       # Energy for active background per rank (pJ)
system.mem_ctrls_1.preBackEnergy              1382250                       # Energy for precharge background per rank (pJ)
system.mem_ctrls_1.totalEnergy               30793680                       # Total energy per rank (pJ)
system.mem_ctrls_1.averagePower            785.728447                       # Core power per rank (mW)
system.mem_ctrls_1.memoryStateTime::IDLE      2151250                       # Time in different power states
system.mem_ctrls_1.memoryStateTime::REF       1300000                       # Time in different power states
system.mem_ctrls_1.memoryStateTime::PRE_PDN            0                       # Time in different power states
system.mem_ctrls_1.memoryStateTime::ACT      35753750                       # Time in different power states
system.mem_ctrls_1.memoryStateTime::ACT_PDN            0                       # Time in different power states
system.cpu00.branchPred.lookups                  9661                       # Number of BP lookups
system.cpu00.branchPred.condPredicted            7079                       # Number of conditional branches predicted
system.cpu00.branchPred.condIncorrect             967                       # Number of conditional branches incorrect
system.cpu00.branchPred.BTBLookups               6744                       # Number of BTB lookups
system.cpu00.branchPred.BTBHits                  3067                       # Number of BTB hits
system.cpu00.branchPred.BTBCorrect                  0                       # Number of correct BTB predictions (this stat may not work properly.
system.cpu00.branchPred.BTBHitPct           45.477461                       # BTB Hit Percentage
system.cpu00.branchPred.usedRAS                  1004                       # Number of times the RAS was used to get a target.
system.cpu00.branchPred.RASInCorrect               12                       # Number of incorrect RAS predictions.
system.cpu_voltage_domain.voltage                   1                       # Voltage in Volts
system.cpu_clk_domain.clock                       500                       # Clock period in ticks
system.cpu00.dstage2_mmu.stage2_tlb.walker.walks            0                       # Table walker walks requested
system.cpu00.dstage2_mmu.stage2_tlb.walker.walkRequestOrigin_Requested::Data            0                       # Table walker requests started/completed, data/inst
system.cpu00.dstage2_mmu.stage2_tlb.walker.walkRequestOrigin_Requested::Inst            0                       # Table walker requests started/completed, data/inst
system.cpu00.dstage2_mmu.stage2_tlb.walker.walkRequestOrigin_Requested::total            0                       # Table walker requests started/completed, data/inst
system.cpu00.dstage2_mmu.stage2_tlb.walker.walkRequestOrigin_Completed::Data            0                       # Table walker requests started/completed, data/inst
system.cpu00.dstage2_mmu.stage2_tlb.walker.walkRequestOrigin_Completed::Inst            0                       # Table walker requests started/completed, data/inst
system.cpu00.dstage2_mmu.stage2_tlb.walker.walkRequestOrigin_Completed::total            0                       # Table walker requests started/completed, data/inst
system.cpu00.dstage2_mmu.stage2_tlb.walker.walkRequestOrigin::total            0                       # Table walker requests started/completed, data/inst
system.cpu00.dstage2_mmu.stage2_tlb.inst_hits            0                       # ITB inst hits
system.cpu00.dstage2_mmu.stage2_tlb.inst_misses            0                       # ITB inst misses
system.cpu00.dstage2_mmu.stage2_tlb.read_hits            0                       # DTB read hits
system.cpu00.dstage2_mmu.stage2_tlb.read_misses            0                       # DTB read misses
system.cpu00.dstage2_mmu.stage2_tlb.write_hits            0                       # DTB write hits
system.cpu00.dstage2_mmu.stage2_tlb.write_misses            0                       # DTB write misses
system.cpu00.dstage2_mmu.stage2_tlb.flush_tlb            0                       # Number of times complete TLB was flushed
system.cpu00.dstage2_mmu.stage2_tlb.flush_tlb_mva            0                       # Number of times TLB was flushed by MVA
system.cpu00.dstage2_mmu.stage2_tlb.flush_tlb_mva_asid            0                       # Number of times TLB was flushed by MVA & ASID
system.cpu00.dstage2_mmu.stage2_tlb.flush_tlb_asid            0                       # Number of times TLB was flushed by ASID
system.cpu00.dstage2_mmu.stage2_tlb.flush_entries            0                       # Number of entries that have been flushed from TLB
system.cpu00.dstage2_mmu.stage2_tlb.align_faults            0                       # Number of TLB faults due to alignment restrictions
system.cpu00.dstage2_mmu.stage2_tlb.prefetch_faults            0                       # Number of TLB faults due to prefetch
system.cpu00.dstage2_mmu.stage2_tlb.domain_faults            0                       # Number of TLB faults due to domain restrictions
system.cpu00.dstage2_mmu.stage2_tlb.perms_faults            0                       # Number of TLB faults due to permissions restrictions
system.cpu00.dstage2_mmu.stage2_tlb.read_accesses            0                       # DTB read accesses
system.cpu00.dstage2_mmu.stage2_tlb.write_accesses            0                       # DTB write accesses
system.cpu00.dstage2_mmu.stage2_tlb.inst_accesses            0                       # ITB inst accesses
system.cpu00.dstage2_mmu.stage2_tlb.hits            0                       # DTB hits
system.cpu00.dstage2_mmu.stage2_tlb.misses            0                       # DTB misses
system.cpu00.dstage2_mmu.stage2_tlb.accesses            0                       # DTB accesses
system.cpu00.dtb.walker.walks                       0                       # Table walker walks requested
system.cpu00.dtb.walker.walkRequestOrigin_Requested::Data            0                       # Table walker requests started/completed, data/inst
system.cpu00.dtb.walker.walkRequestOrigin_Requested::Inst            0                       # Table walker requests started/completed, data/inst
system.cpu00.dtb.walker.walkRequestOrigin_Requested::total            0                       # Table walker requests started/completed, data/inst
system.cpu00.dtb.walker.walkRequestOrigin_Completed::Data            0                       # Table walker requests started/completed, data/inst
system.cpu00.dtb.walker.walkRequestOrigin_Completed::Inst            0                       # Table walker requests started/completed, data/inst
system.cpu00.dtb.walker.walkRequestOrigin_Completed::total            0                       # Table walker requests started/completed, data/inst
system.cpu00.dtb.walker.walkRequestOrigin::total            0                       # Table walker requests started/completed, data/inst
system.cpu00.dtb.inst_hits                          0                       # ITB inst hits
system.cpu00.dtb.inst_misses                        0                       # ITB inst misses
system.cpu00.dtb.read_hits                          0                       # DTB read hits
system.cpu00.dtb.read_misses                        0                       # DTB read misses
system.cpu00.dtb.write_hits                         0                       # DTB write hits
system.cpu00.dtb.write_misses                       0                       # DTB write misses
system.cpu00.dtb.flush_tlb                          0                       # Number of times complete TLB was flushed
system.cpu00.dtb.flush_tlb_mva                      0                       # Number of times TLB was flushed by MVA
system.cpu00.dtb.flush_tlb_mva_asid                 0                       # Number of times TLB was flushed by MVA & ASID
system.cpu00.dtb.flush_tlb_asid                     0                       # Number of times TLB was flushed by ASID
system.cpu00.dtb.flush_entries                      0                       # Number of entries that have been flushed from TLB
system.cpu00.dtb.align_faults                       0                       # Number of TLB faults due to alignment restrictions
system.cpu00.dtb.prefetch_faults                    0                       # Number of TLB faults due to prefetch
system.cpu00.dtb.domain_faults                      0                       # Number of TLB faults due to domain restrictions
system.cpu00.dtb.perms_faults                       0                       # Number of TLB faults due to permissions restrictions
system.cpu00.dtb.read_accesses                      0                       # DTB read accesses
system.cpu00.dtb.write_accesses                     0                       # DTB write accesses
system.cpu00.dtb.inst_accesses                      0                       # ITB inst accesses
system.cpu00.dtb.hits                               0                       # DTB hits
system.cpu00.dtb.misses                             0                       # DTB misses
system.cpu00.dtb.accesses                           0                       # DTB accesses
system.cpu00.istage2_mmu.stage2_tlb.walker.walks            0                       # Table walker walks requested
system.cpu00.istage2_mmu.stage2_tlb.walker.walkRequestOrigin_Requested::Data            0                       # Table walker requests started/completed, data/inst
system.cpu00.istage2_mmu.stage2_tlb.walker.walkRequestOrigin_Requested::Inst            0                       # Table walker requests started/completed, data/inst
system.cpu00.istage2_mmu.stage2_tlb.walker.walkRequestOrigin_Requested::total            0                       # Table walker requests started/completed, data/inst
system.cpu00.istage2_mmu.stage2_tlb.walker.walkRequestOrigin_Completed::Data            0                       # Table walker requests started/completed, data/inst
system.cpu00.istage2_mmu.stage2_tlb.walker.walkRequestOrigin_Completed::Inst            0                       # Table walker requests started/completed, data/inst
system.cpu00.istage2_mmu.stage2_tlb.walker.walkRequestOrigin_Completed::total            0                       # Table walker requests started/completed, data/inst
system.cpu00.istage2_mmu.stage2_tlb.walker.walkRequestOrigin::total            0                       # Table walker requests started/completed, data/inst
system.cpu00.istage2_mmu.stage2_tlb.inst_hits            0                       # ITB inst hits
system.cpu00.istage2_mmu.stage2_tlb.inst_misses            0                       # ITB inst misses
system.cpu00.istage2_mmu.stage2_tlb.read_hits            0                       # DTB read hits
system.cpu00.istage2_mmu.stage2_tlb.read_misses            0                       # DTB read misses
system.cpu00.istage2_mmu.stage2_tlb.write_hits            0                       # DTB write hits
system.cpu00.istage2_mmu.stage2_tlb.write_misses            0                       # DTB write misses
system.cpu00.istage2_mmu.stage2_tlb.flush_tlb            0                       # Number of times complete TLB was flushed
system.cpu00.istage2_mmu.stage2_tlb.flush_tlb_mva            0                       # Number of times TLB was flushed by MVA
system.cpu00.istage2_mmu.stage2_tlb.flush_tlb_mva_asid            0                       # Number of times TLB was flushed by MVA & ASID
system.cpu00.istage2_mmu.stage2_tlb.flush_tlb_asid            0                       # Number of times TLB was flushed by ASID
system.cpu00.istage2_mmu.stage2_tlb.flush_entries            0                       # Number of entries that have been flushed from TLB
system.cpu00.istage2_mmu.stage2_tlb.align_faults            0                       # Number of TLB faults due to alignment restrictions
system.cpu00.istage2_mmu.stage2_tlb.prefetch_faults            0                       # Number of TLB faults due to prefetch
system.cpu00.istage2_mmu.stage2_tlb.domain_faults            0                       # Number of TLB faults due to domain restrictions
system.cpu00.istage2_mmu.stage2_tlb.perms_faults            0                       # Number of TLB faults due to permissions restrictions
system.cpu00.istage2_mmu.stage2_tlb.read_accesses            0                       # DTB read accesses
system.cpu00.istage2_mmu.stage2_tlb.write_accesses            0                       # DTB write accesses
system.cpu00.istage2_mmu.stage2_tlb.inst_accesses            0                       # ITB inst accesses
system.cpu00.istage2_mmu.stage2_tlb.hits            0                       # DTB hits
system.cpu00.istage2_mmu.stage2_tlb.misses            0                       # DTB misses
system.cpu00.istage2_mmu.stage2_tlb.accesses            0                       # DTB accesses
system.cpu00.itb.walker.walks                       0                       # Table walker walks requested
system.cpu00.itb.walker.walkRequestOrigin_Requested::Data            0                       # Table walker requests started/completed, data/inst
system.cpu00.itb.walker.walkRequestOrigin_Requested::Inst            0                       # Table walker requests started/completed, data/inst
system.cpu00.itb.walker.walkRequestOrigin_Requested::total            0                       # Table walker requests started/completed, data/inst
system.cpu00.itb.walker.walkRequestOrigin_Completed::Data            0                       # Table walker requests started/completed, data/inst
system.cpu00.itb.walker.walkRequestOrigin_Completed::Inst            0                       # Table walker requests started/completed, data/inst
system.cpu00.itb.walker.walkRequestOrigin_Completed::total            0                       # Table walker requests started/completed, data/inst
system.cpu00.itb.walker.walkRequestOrigin::total            0                       # Table walker requests started/completed, data/inst
system.cpu00.itb.inst_hits                          0                       # ITB inst hits
system.cpu00.itb.inst_misses                        0                       # ITB inst misses
system.cpu00.itb.read_hits                          0                       # DTB read hits
system.cpu00.itb.read_misses                        0                       # DTB read misses
system.cpu00.itb.write_hits                         0                       # DTB write hits
system.cpu00.itb.write_misses                       0                       # DTB write misses
system.cpu00.itb.flush_tlb                          0                       # Number of times complete TLB was flushed
system.cpu00.itb.flush_tlb_mva                      0                       # Number of times TLB was flushed by MVA
system.cpu00.itb.flush_tlb_mva_asid                 0                       # Number of times TLB was flushed by MVA & ASID
system.cpu00.itb.flush_tlb_asid                     0                       # Number of times TLB was flushed by ASID
system.cpu00.itb.flush_entries                      0                       # Number of entries that have been flushed from TLB
system.cpu00.itb.align_faults                       0                       # Number of TLB faults due to alignment restrictions
system.cpu00.itb.prefetch_faults                    0                       # Number of TLB faults due to prefetch
system.cpu00.itb.domain_faults                      0                       # Number of TLB faults due to domain restrictions
system.cpu00.itb.perms_faults                       0                       # Number of TLB faults due to permissions restrictions
system.cpu00.itb.read_accesses                      0                       # DTB read accesses
system.cpu00.itb.write_accesses                     0                       # DTB write accesses
system.cpu00.itb.inst_accesses                      0                       # ITB inst accesses
system.cpu00.itb.hits                               0                       # DTB hits
system.cpu00.itb.misses                             0                       # DTB misses
system.cpu00.itb.accesses                           0                       # DTB accesses
system.cpu00.workload.num_syscalls                332                       # Number of system calls
system.cpu00.numCycles                          83735                       # number of cpu cycles simulated
system.cpu00.numWorkItemsStarted                    0                       # number of work items this cpu started
system.cpu00.numWorkItemsCompleted                  0                       # number of work items this cpu completed
system.cpu00.fetch.icacheStallCycles            19435                       # Number of cycles fetch is stalled on an Icache miss
system.cpu00.fetch.Insts                        47356                       # Number of instructions fetch has processed
system.cpu00.fetch.Branches                      9661                       # Number of branches that fetch encountered
system.cpu00.fetch.predictedBranches             4071                       # Number of branches that fetch has predicted taken
system.cpu00.fetch.Cycles                       28357                       # Number of cycles fetch has run and was not squashing or blocked
system.cpu00.fetch.SquashCycles                  2069                       # Number of cycles fetch has spent squashing
system.cpu00.fetch.PendingTrapStallCycles            4                       # Number of stall cycles due to pending traps
system.cpu00.fetch.CacheLines                    5984                       # Number of cache lines fetched
system.cpu00.fetch.IcacheSquashes                 593                       # Number of outstanding Icache misses that were squashed
system.cpu00.fetch.rateDist::samples            48830                       # Number of instructions fetched each cycle (Total)
system.cpu00.fetch.rateDist::mean            1.142494                       # Number of instructions fetched each cycle (Total)
system.cpu00.fetch.rateDist::stdev           2.563289                       # Number of instructions fetched each cycle (Total)
system.cpu00.fetch.rateDist::underflows             0      0.00%      0.00% # Number of instructions fetched each cycle (Total)
system.cpu00.fetch.rateDist::0                  39156     80.19%     80.19% # Number of instructions fetched each cycle (Total)
system.cpu00.fetch.rateDist::1                    795      1.63%     81.82% # Number of instructions fetched each cycle (Total)
system.cpu00.fetch.rateDist::2                    956      1.96%     83.77% # Number of instructions fetched each cycle (Total)
system.cpu00.fetch.rateDist::3                    756      1.55%     85.32% # Number of instructions fetched each cycle (Total)
system.cpu00.fetch.rateDist::4                    614      1.26%     86.58% # Number of instructions fetched each cycle (Total)
system.cpu00.fetch.rateDist::5                    597      1.22%     87.80% # Number of instructions fetched each cycle (Total)
system.cpu00.fetch.rateDist::6                    675      1.38%     89.18% # Number of instructions fetched each cycle (Total)
system.cpu00.fetch.rateDist::7                    926      1.90%     91.08% # Number of instructions fetched each cycle (Total)
system.cpu00.fetch.rateDist::8                   4355      8.92%    100.00% # Number of instructions fetched each cycle (Total)
system.cpu00.fetch.rateDist::overflows              0      0.00%    100.00% # Number of instructions fetched each cycle (Total)
system.cpu00.fetch.rateDist::min_value              0                       # Number of instructions fetched each cycle (Total)
system.cpu00.fetch.rateDist::max_value              8                       # Number of instructions fetched each cycle (Total)
system.cpu00.fetch.rateDist::total              48830                       # Number of instructions fetched each cycle (Total)
system.cpu00.fetch.branchRate                0.115376                       # Number of branch fetches per cycle
system.cpu00.fetch.rate                      0.565546                       # Number of inst fetches per cycle
system.cpu00.decode.IdleCycles                  15004                       # Number of cycles decode is idle
system.cpu00.decode.BlockedCycles               25307                       # Number of cycles decode is blocked
system.cpu00.decode.RunCycles                    6503                       # Number of cycles decode is running
system.cpu00.decode.UnblockCycles                1285                       # Number of cycles decode is unblocking
system.cpu00.decode.SquashCycles                  731                       # Number of cycles decode is squashing
system.cpu00.decode.BranchResolved               1144                       # Number of times decode resolved a branch
system.cpu00.decode.BranchMispred                 312                       # Number of times decode detected a branch misprediction
system.cpu00.decode.DecodedInsts                47293                       # Number of instructions handled by decode
system.cpu00.decode.SquashedInsts                1185                       # Number of squashed instructions handled by decode
system.cpu00.rename.SquashCycles                  731                       # Number of cycles rename is squashing
system.cpu00.rename.IdleCycles                  15863                       # Number of cycles rename is idle
system.cpu00.rename.BlockCycles                  2816                       # Number of cycles rename is blocking
system.cpu00.rename.serializeStallCycles        14293                       # count of cycles rename stalled for serializing inst
system.cpu00.rename.RunCycles                    6903                       # Number of cycles rename is running
system.cpu00.rename.UnblockCycles                8224                       # Number of cycles rename is unblocking
system.cpu00.rename.RenamedInsts                45193                       # Number of instructions processed by rename
system.cpu00.rename.ROBFullEvents                   4                       # Number of times rename has blocked due to ROB full
system.cpu00.rename.IQFullEvents                 1907                       # Number of times rename has blocked due to IQ full
system.cpu00.rename.LQFullEvents                   38                       # Number of times rename has blocked due to LQ full
system.cpu00.rename.SQFullEvents                 6117                       # Number of times rename has blocked due to SQ full
system.cpu00.rename.RenamedOperands             50647                       # Number of destination operands rename has renamed
system.cpu00.rename.RenameLookups              209229                       # Number of register rename lookups that rename has made
system.cpu00.rename.int_rename_lookups          53180                       # Number of integer rename lookups
system.cpu00.rename.fp_rename_lookups              22                       # Number of floating rename lookups
system.cpu00.rename.CommittedMaps               28536                       # Number of HB maps that are committed
system.cpu00.rename.UndoneMaps                  22111                       # Number of HB maps that are undone due to squashing
system.cpu00.rename.serializingInsts              169                       # count of serializing insts renamed
system.cpu00.rename.tempSerializingInsts          168                       # count of temporary serializing insts renamed
system.cpu00.rename.skidInsts                    6177                       # count of insts added to the skid buffer
system.cpu00.memDep0.insertedLoads               7301                       # Number of loads inserted to the mem dependence unit.
system.cpu00.memDep0.insertedStores              6496                       # Number of stores inserted to the mem dependence unit.
system.cpu00.memDep0.conflictingLoads             545                       # Number of conflicting loads.
system.cpu00.memDep0.conflictingStores            445                       # Number of conflicting stores.
system.cpu00.iq.iqInstsAdded                    42253                       # Number of instructions added to the IQ (excludes non-spec)
system.cpu00.iq.iqNonSpecInstsAdded               311                       # Number of non-speculative instructions added to the IQ
system.cpu00.iq.iqInstsIssued                   29861                       # Number of instructions issued
system.cpu00.iq.iqSquashedInstsIssued            2117                       # Number of squashed instructions issued
system.cpu00.iq.iqSquashedInstsExamined         17239                       # Number of squashed instructions iterated over during squash; mainly for profiling
system.cpu00.iq.iqSquashedOperandsExamined        60986                       # Number of squashed operands that are examined and possibly removed from graph
system.cpu00.iq.iqSquashedNonSpecRemoved           93                       # Number of squashed non-spec instructions that were removed
system.cpu00.iq.issued_per_cycle::samples        48830                       # Number of insts issued each cycle
system.cpu00.iq.issued_per_cycle::mean       0.611530                       # Number of insts issued each cycle
system.cpu00.iq.issued_per_cycle::stdev      0.892122                       # Number of insts issued each cycle
system.cpu00.iq.issued_per_cycle::underflows            0      0.00%      0.00% # Number of insts issued each cycle
system.cpu00.iq.issued_per_cycle::0             32600     66.76%     66.76% # Number of insts issued each cycle
system.cpu00.iq.issued_per_cycle::1              2599      5.32%     72.08% # Number of insts issued each cycle
system.cpu00.iq.issued_per_cycle::2             13631     27.92%    100.00% # Number of insts issued each cycle
system.cpu00.iq.issued_per_cycle::overflows            0      0.00%    100.00% # Number of insts issued each cycle
system.cpu00.iq.issued_per_cycle::min_value            0                       # Number of insts issued each cycle
system.cpu00.iq.issued_per_cycle::max_value            2                       # Number of insts issued each cycle
system.cpu00.iq.issued_per_cycle::total         48830                       # Number of insts issued each cycle
system.cpu00.iq.fu_full::No_OpClass                 0                       # attempts to use FU when none available
system.cpu00.iq.fu_full::IntAlu                     0                       # attempts to use FU when none available
system.cpu00.iq.fu_full::IntMult                    0                       # attempts to use FU when none available
system.cpu00.iq.fu_full::IntDiv                     0                       # attempts to use FU when none available
system.cpu00.iq.fu_full::FloatAdd                   0                       # attempts to use FU when none available
system.cpu00.iq.fu_full::FloatCmp                   0                       # attempts to use FU when none available
system.cpu00.iq.fu_full::FloatCvt                   0                       # attempts to use FU when none available
system.cpu00.iq.fu_full::FloatMult                  0                       # attempts to use FU when none available
system.cpu00.iq.fu_full::FloatDiv                   0                       # attempts to use FU when none available
system.cpu00.iq.fu_full::FloatSqrt                  0                       # attempts to use FU when none available
system.cpu00.iq.fu_full::SimdAdd                    0                       # attempts to use FU when none available
system.cpu00.iq.fu_full::SimdAddAcc                 0                       # attempts to use FU when none available
system.cpu00.iq.fu_full::SimdAlu                    0                       # attempts to use FU when none available
system.cpu00.iq.fu_full::SimdCmp                    0                       # attempts to use FU when none available
system.cpu00.iq.fu_full::SimdCvt                    0                       # attempts to use FU when none available
system.cpu00.iq.fu_full::SimdMisc                   0                       # attempts to use FU when none available
system.cpu00.iq.fu_full::SimdMult                   0                       # attempts to use FU when none available
system.cpu00.iq.fu_full::SimdMultAcc                0                       # attempts to use FU when none available
system.cpu00.iq.fu_full::SimdShift                  0                       # attempts to use FU when none available
system.cpu00.iq.fu_full::SimdShiftAcc               0                       # attempts to use FU when none available
system.cpu00.iq.fu_full::SimdSqrt                   0                       # attempts to use FU when none available
system.cpu00.iq.fu_full::SimdFloatAdd               0                       # attempts to use FU when none available
system.cpu00.iq.fu_full::SimdFloatAlu               0                       # attempts to use FU when none available
system.cpu00.iq.fu_full::SimdFloatCmp               0                       # attempts to use FU when none available
system.cpu00.iq.fu_full::SimdFloatCvt               0                       # attempts to use FU when none available
system.cpu00.iq.fu_full::SimdFloatDiv               0                       # attempts to use FU when none available
system.cpu00.iq.fu_full::SimdFloatMisc              0                       # attempts to use FU when none available
system.cpu00.iq.fu_full::SimdFloatMult              0                       # attempts to use FU when none available
system.cpu00.iq.fu_full::SimdFloatMultAcc            0                       # attempts to use FU when none available
system.cpu00.iq.fu_full::SimdFloatSqrt              0                       # attempts to use FU when none available
system.cpu00.iq.fu_full::MemRead                    0                       # attempts to use FU when none available
system.cpu00.iq.fu_full::MemWrite                   0                       # attempts to use FU when none available
system.cpu00.iq.fu_full::IprAccess                  0                       # attempts to use FU when none available
system.cpu00.iq.fu_full::InstPrefetch               0                       # attempts to use FU when none available
system.cpu00.iq.FU_type_0::No_OpClass               0      0.00%      0.00% # Type of FU issued
system.cpu00.iq.FU_type_0::IntAlu               19528     65.40%     65.40% # Type of FU issued
system.cpu00.iq.FU_type_0::IntMult                123      0.41%     65.81% # Type of FU issued
system.cpu00.iq.FU_type_0::IntDiv                   0      0.00%     65.81% # Type of FU issued
system.cpu00.iq.FU_type_0::FloatAdd                 0      0.00%     65.81% # Type of FU issued
system.cpu00.iq.FU_type_0::FloatCmp                 0      0.00%     65.81% # Type of FU issued
system.cpu00.iq.FU_type_0::FloatCvt                 0      0.00%     65.81% # Type of FU issued
system.cpu00.iq.FU_type_0::FloatMult                0      0.00%     65.81% # Type of FU issued
system.cpu00.iq.FU_type_0::FloatDiv                 0      0.00%     65.81% # Type of FU issued
system.cpu00.iq.FU_type_0::FloatSqrt                0      0.00%     65.81% # Type of FU issued
system.cpu00.iq.FU_type_0::SimdAdd                  0      0.00%     65.81% # Type of FU issued
system.cpu00.iq.FU_type_0::SimdAddAcc               0      0.00%     65.81% # Type of FU issued
system.cpu00.iq.FU_type_0::SimdAlu                  0      0.00%     65.81% # Type of FU issued
[...]
system.membus.pkt_count_system.cpu07.icache.mem_side::system.mem_ctrls.port          102                       # Packet count per connected master and slave (bytes)
system.membus.pkt_count_system.cpu07.dcache.mem_side::system.mem_ctrls.port           63                       # Packet count per connected master and slave (bytes)
system.membus.pkt_count_system.cpu08.icache.mem_side::system.mem_ctrls.port          102                       # Packet count per connected master and slave (bytes)
system.membus.pkt_count_system.cpu08.dcache.mem_side::system.mem_ctrls.port           70                       # Packet count per connected master and slave (bytes)
system.membus.pkt_count_system.cpu09.icache.mem_side::system.mem_ctrls.port          108                       # Packet count per connected master and slave (bytes)
system.membus.pkt_count_system.cpu09.dcache.mem_side::system.mem_ctrls.port           64                       # Packet count per connected master and slave (bytes)
system.membus.pkt_count_system.cpu10.icache.mem_side::system.mem_ctrls.port          106                       # Packet count per connected master and slave (bytes)
system.membus.pkt_count_system.cpu10.dcache.mem_side::system.mem_ctrls.port           58                       # Packet count per connected master and slave (bytes)
system.membus.pkt_count_system.cpu11.icache.mem_side::system.mem_ctrls.port          110                       # Packet count per connected master and slave (bytes)
system.membus.pkt_count_system.cpu11.dcache.mem_side::system.mem_ctrls.port           69                       # Packet count per connected master and slave (bytes)
system.membus.pkt_count_system.cpu12.icache.mem_side::system.mem_ctrls.port          112                       # Packet count per connected master and slave (bytes)
system.membus.pkt_count_system.cpu12.dcache.mem_side::system.mem_ctrls.port           66                       # Packet count per connected master and slave (bytes)
system.membus.pkt_count_system.cpu13.icache.mem_side::system.mem_ctrls.port          108                       # Packet count per connected master and slave (bytes)
system.membus.pkt_count_system.cpu13.dcache.mem_side::system.mem_ctrls.port           70                       # Packet count per connected master and slave (bytes)
system.membus.pkt_count_system.cpu14.icache.mem_side::system.mem_ctrls.port          112                       # Packet count per connected master and slave (bytes)
system.membus.pkt_count_system.cpu14.dcache.mem_side::system.mem_ctrls.port           58                       # Packet count per connected master and slave (bytes)
system.membus.pkt_count_system.cpu15.icache.mem_side::system.mem_ctrls.port          106                       # Packet count per connected master and slave (bytes)
system.membus.pkt_count_system.cpu15.dcache.mem_side::system.mem_ctrls.port           60                       # Packet count per connected master and slave (bytes)
system.membus.pkt_count::total                   4516                       # Packet count per connected master and slave (bytes)
system.membus.pkt_size_system.cpu00.icache.mem_side::system.mem_ctrls.port        38528                       # Cumulative packet size per connected master and slave (bytes)
system.membus.pkt_size_system.cpu00.dcache.mem_side::system.mem_ctrls.port        23104                       # Cumulative packet size per connected master and slave (bytes)
system.membus.pkt_size_system.cpu01.icache.mem_side::system.mem_ctrls.port         3328                       # Cumulative packet size per connected master and slave (bytes)
system.membus.pkt_size_system.cpu01.dcache.mem_side::system.mem_ctrls.port          960                       # Cumulative packet size per connected master and slave (bytes)
system.membus.pkt_size_system.cpu02.icache.mem_side::system.mem_ctrls.port         3328                       # Cumulative packet size per connected master and slave (bytes)
system.membus.pkt_size_system.cpu02.dcache.mem_side::system.mem_ctrls.port          960                       # Cumulative packet size per connected master and slave (bytes)
system.membus.pkt_size_system.cpu03.icache.mem_side::system.mem_ctrls.port         3328                       # Cumulative packet size per connected master and slave (bytes)
system.membus.pkt_size_system.cpu03.dcache.mem_side::system.mem_ctrls.port          960                       # Cumulative packet size per connected master and slave (bytes)
system.membus.pkt_size_system.cpu04.icache.mem_side::system.mem_ctrls.port         3264                       # Cumulative packet size per connected master and slave (bytes)
system.membus.pkt_size_system.cpu04.dcache.mem_side::system.mem_ctrls.port          960                       # Cumulative packet size per connected master and slave (bytes)
system.membus.pkt_size_system.cpu05.icache.mem_side::system.mem_ctrls.port         3328                       # Cumulative packet size per connected master and slave (bytes)
system.membus.pkt_size_system.cpu05.dcache.mem_side::system.mem_ctrls.port          960                       # Cumulative packet size per connected master and slave (bytes)
system.membus.pkt_size_system.cpu06.icache.mem_side::system.mem_ctrls.port         3392                       # Cumulative packet size per connected master and slave (bytes)
system.membus.pkt_size_system.cpu06.dcache.mem_side::system.mem_ctrls.port          960                       # Cumulative packet size per connected master and slave (bytes)
system.membus.pkt_size_system.cpu07.icache.mem_side::system.mem_ctrls.port         3264                       # Cumulative packet size per connected master and slave (bytes)
system.membus.pkt_size_system.cpu07.dcache.mem_side::system.mem_ctrls.port         1024                       # Cumulative packet size per connected master and slave (bytes)
system.membus.pkt_size_system.cpu08.icache.mem_side::system.mem_ctrls.port         3264                       # Cumulative packet size per connected master and slave (bytes)
system.membus.pkt_size_system.cpu08.dcache.mem_side::system.mem_ctrls.port          960                       # Cumulative packet size per connected master and slave (bytes)
system.membus.pkt_size_system.cpu09.icache.mem_side::system.mem_ctrls.port         3456                       # Cumulative packet size per connected master and slave (bytes)
system.membus.pkt_size_system.cpu09.dcache.mem_side::system.mem_ctrls.port          960                       # Cumulative packet size per connected master and slave (bytes)
system.membus.pkt_size_system.cpu10.icache.mem_side::system.mem_ctrls.port         3392                       # Cumulative packet size per connected master and slave (bytes)
system.membus.pkt_size_system.cpu10.dcache.mem_side::system.mem_ctrls.port          960                       # Cumulative packet size per connected master and slave (bytes)
system.membus.pkt_size_system.cpu11.icache.mem_side::system.mem_ctrls.port         3520                       # Cumulative packet size per connected master and slave (bytes)
system.membus.pkt_size_system.cpu11.dcache.mem_side::system.mem_ctrls.port          960                       # Cumulative packet size per connected master and slave (bytes)
system.membus.pkt_size_system.cpu12.icache.mem_side::system.mem_ctrls.port         3584                       # Cumulative packet size per connected master and slave (bytes)
system.membus.pkt_size_system.cpu12.dcache.mem_side::system.mem_ctrls.port         1024                       # Cumulative packet size per connected master and slave (bytes)
system.membus.pkt_size_system.cpu13.icache.mem_side::system.mem_ctrls.port         3456                       # Cumulative packet size per connected master and slave (bytes)
system.membus.pkt_size_system.cpu13.dcache.mem_side::system.mem_ctrls.port          960                       # Cumulative packet size per connected master and slave (bytes)
system.membus.pkt_size_system.cpu14.icache.mem_side::system.mem_ctrls.port         3584                       # Cumulative packet size per connected master and slave (bytes)
system.membus.pkt_size_system.cpu14.dcache.mem_side::system.mem_ctrls.port          960                       # Cumulative packet size per connected master and slave (bytes)
system.membus.pkt_size_system.cpu15.icache.mem_side::system.mem_ctrls.port         3392                       # Cumulative packet size per connected master and slave (bytes)
system.membus.pkt_size_system.cpu15.dcache.mem_side::system.mem_ctrls.port         1024                       # Cumulative packet size per connected master and slave (bytes)
system.membus.pkt_size::total                  127104                       # Cumulative packet size per connected master and slave (bytes)
system.membus.snoops                              535                       # Total snoops (count)
system.membus.snoop_fanout::samples              2570                       # Request fanout histogram
system.membus.snoop_fanout::mean                   31                       # Request fanout histogram
system.membus.snoop_fanout::stdev                   0                       # Request fanout histogram
system.membus.snoop_fanout::underflows              0      0.00%      0.00% # Request fanout histogram
system.membus.snoop_fanout::0                       0      0.00%      0.00% # Request fanout histogram
system.membus.snoop_fanout::1                       0      0.00%      0.00% # Request fanout histogram
system.membus.snoop_fanout::2                       0      0.00%      0.00% # Request fanout histogram
system.membus.snoop_fanout::3                       0      0.00%      0.00% # Request fanout histogram
system.membus.snoop_fanout::4                       0      0.00%      0.00% # Request fanout histogram
system.membus.snoop_fanout::5                       0      0.00%      0.00% # Request fanout histogram
system.membus.snoop_fanout::6                       0      0.00%      0.00% # Request fanout histogram
system.membus.snoop_fanout::7                       0      0.00%      0.00% # Request fanout histogram
system.membus.snoop_fanout::8                       0      0.00%      0.00% # Request fanout histogram
system.membus.snoop_fanout::9                       0      0.00%      0.00% # Request fanout histogram
system.membus.snoop_fanout::10                      0      0.00%      0.00% # Request fanout histogram
system.membus.snoop_fanout::11                      0      0.00%      0.00% # Request fanout histogram
system.membus.snoop_fanout::12                      0      0.00%      0.00% # Request fanout histogram
system.membus.snoop_fanout::13                      0      0.00%      0.00% # Request fanout histogram
system.membus.snoop_fanout::14                      0      0.00%      0.00% # Request fanout histogram
system.membus.snoop_fanout::15                      0      0.00%      0.00% # Request fanout histogram
system.membus.snoop_fanout::16                      0      0.00%      0.00% # Request fanout histogram
system.membus.snoop_fanout::17                      0      0.00%      0.00% # Request fanout histogram
system.membus.snoop_fanout::18                      0      0.00%      0.00% # Request fanout histogram
system.membus.snoop_fanout::19                      0      0.00%      0.00% # Request fanout histogram
system.membus.snoop_fanout::20                      0      0.00%      0.00% # Request fanout histogram
system.membus.snoop_fanout::21                      0      0.00%      0.00% # Request fanout histogram
system.membus.snoop_fanout::22                      0      0.00%      0.00% # Request fanout histogram
system.membus.snoop_fanout::23                      0      0.00%      0.00% # Request fanout histogram
system.membus.snoop_fanout::24                      0      0.00%      0.00% # Request fanout histogram
system.membus.snoop_fanout::25                      0      0.00%      0.00% # Request fanout histogram
system.membus.snoop_fanout::26                      0      0.00%      0.00% # Request fanout histogram
system.membus.snoop_fanout::27                      0      0.00%      0.00% # Request fanout histogram
system.membus.snoop_fanout::28                      0      0.00%      0.00% # Request fanout histogram
system.membus.snoop_fanout::29                      0      0.00%      0.00% # Request fanout histogram
system.membus.snoop_fanout::30                      0      0.00%      0.00% # Request fanout histogram
system.membus.snoop_fanout::31                   2570    100.00%    100.00% # Request fanout histogram
system.membus.snoop_fanout::32                      0      0.00%    100.00% # Request fanout histogram
system.membus.snoop_fanout::overflows               0      0.00%    100.00% # Request fanout histogram
system.membus.snoop_fanout::min_value              31                       # Request fanout histogram
system.membus.snoop_fanout::max_value              31                       # Request fanout histogram
system.membus.snoop_fanout::total                2570                       # Request fanout histogram
system.membus.reqLayer0.occupancy             3117997                       # Layer occupancy (ticks)
system.membus.reqLayer0.utilization               7.4                       # Layer utilization (%)
system.membus.respLayer1.occupancy            3203500                       # Layer occupancy (ticks)
system.membus.respLayer1.utilization              7.7                       # Layer utilization (%)
system.membus.respLayer2.occupancy            1913241                       # Layer occupancy (ticks)
system.membus.respLayer2.utilization              4.6                       # Layer utilization (%)
system.membus.respLayer5.occupancy             276000                       # Layer occupancy (ticks)
system.membus.respLayer5.utilization              0.7                       # Layer utilization (%)
system.membus.respLayer6.occupancy             314974                       # Layer occupancy (ticks)
system.membus.respLayer6.utilization              0.8                       # Layer utilization (%)
system.membus.respLayer9.occupancy             278500                       # Layer occupancy (ticks)
system.membus.respLayer9.utilization              0.7                       # Layer utilization (%)
system.membus.respLayer10.occupancy            287228                       # Layer occupancy (ticks)
system.membus.respLayer10.utilization             0.7                       # Layer utilization (%)
system.membus.respLayer13.occupancy            277000                       # Layer occupancy (ticks)
system.membus.respLayer13.utilization             0.7                       # Layer utilization (%)
system.membus.respLayer14.occupancy            223240                       # Layer occupancy (ticks)
system.membus.respLayer14.utilization             0.5                       # Layer utilization (%)
system.membus.respLayer17.occupancy            273750                       # Layer occupancy (ticks)
system.membus.respLayer17.utilization             0.7                       # Layer utilization (%)
system.membus.respLayer18.occupancy            233982                       # Layer occupancy (ticks)
system.membus.respLayer18.utilization             0.6                       # Layer utilization (%)
system.membus.respLayer21.occupancy            275750                       # Layer occupancy (ticks)
system.membus.respLayer21.utilization             0.7                       # Layer utilization (%)
system.membus.respLayer22.occupancy            216991                       # Layer occupancy (ticks)
system.membus.respLayer22.utilization             0.5                       # Layer utilization (%)
system.membus.respLayer25.occupancy            283250                       # Layer occupancy (ticks)
system.membus.respLayer25.utilization             0.7                       # Layer utilization (%)
system.membus.respLayer26.occupancy            261994                       # Layer occupancy (ticks)
system.membus.respLayer26.utilization             0.6                       # Layer utilization (%)
system.membus.respLayer29.occupancy            266250                       # Layer occupancy (ticks)
system.membus.respLayer29.utilization             0.6                       # Layer utilization (%)
system.membus.respLayer30.occupancy            228742                       # Layer occupancy (ticks)
system.membus.respLayer30.utilization             0.5                       # Layer utilization (%)
system.membus.respLayer33.occupancy            269500                       # Layer occupancy (ticks)
system.membus.respLayer33.utilization             0.6                       # Layer utilization (%)
system.membus.respLayer34.occupancy            266984                       # Layer occupancy (ticks)
system.membus.respLayer34.utilization             0.6                       # Layer utilization (%)
system.membus.respLayer37.occupancy            284750                       # Layer occupancy (ticks)
system.membus.respLayer37.utilization             0.7                       # Layer utilization (%)
system.membus.respLayer38.occupancy            235742                       # Layer occupancy (ticks)
system.membus.respLayer38.utilization             0.6                       # Layer utilization (%)
system.membus.respLayer41.occupancy            279000                       # Layer occupancy (ticks)
system.membus.respLayer41.utilization             0.7                       # Layer utilization (%)
system.membus.respLayer42.occupancy            204245                       # Layer occupancy (ticks)
system.membus.respLayer42.utilization             0.5                       # Layer utilization (%)
system.membus.respLayer45.occupancy            293500                       # Layer occupancy (ticks)
system.membus.respLayer45.utilization             0.7                       # Layer utilization (%)
system.membus.respLayer46.occupancy            264485                       # Layer occupancy (ticks)
system.membus.respLayer46.utilization             0.6                       # Layer utilization (%)
system.membus.respLayer49.occupancy            298000                       # Layer occupancy (ticks)
system.membus.respLayer49.utilization             0.7                       # Layer utilization (%)
system.membus.respLayer50.occupancy            241990                       # Layer occupancy (ticks)
system.membus.respLayer50.utilization             0.6                       # Layer utilization (%)
system.membus.respLayer53.occupancy            286000                       # Layer occupancy (ticks)
system.membus.respLayer53.utilization             0.7                       # Layer utilization (%)
system.membus.respLayer54.occupancy            270483                       # Layer occupancy (ticks)
system.membus.respLayer54.utilization             0.6                       # Layer utilization (%)
system.membus.respLayer57.occupancy            299000                       # Layer occupancy (ticks)
system.membus.respLayer57.utilization             0.7                       # Layer utilization (%)
system.membus.respLayer58.occupancy            206994                       # Layer occupancy (ticks)
system.membus.respLayer58.utilization             0.5                       # Layer utilization (%)
system.membus.respLayer61.occupancy            280000                       # Layer occupancy (ticks)
system.membus.respLayer61.utilization             0.7                       # Layer utilization (%)
system.membus.respLayer62.occupancy            202246                       # Layer occupancy (ticks)
system.membus.respLayer62.utilization             0.5                       # Layer utilization (%)

---------- End Simulation Statistics   ----------
