
---------- Begin Simulation Statistics ----------
sim_seconds                                  0.000041                       # Number of seconds simulated
sim_ticks                                    40714500                       # Number of ticks simulated
final_tick                                   40714500                       # Number of ticks from beginning of simulation (restored from checkpoints and never reset)
sim_freq                                 1000000000000                       # Frequency of simulated ticks
host_inst_rate                                 216952                       # Simulator instruction rate (inst/s)
host_op_rate                                   225923                       # Simulator op (including micro ops) rate (op/s)
host_tick_rate                               13850793                       # Simulator tick rate (ticks/s)
host_mem_usage                                 733972                       # Number of bytes of host memory used
host_seconds                                     2.94                       # Real time elapsed on the host
sim_insts                                      637723                       # Number of instructions simulated
sim_ops                                        664098                       # Number of ops (including micro ops) simulated
system.voltage_domain.voltage                       1                       # Voltage in Volts
system.clk_domain.clock                          1000                       # Clock period in ticks
system.mem_ctrls.bytes_read::cpu00.inst         38336                       # Number of bytes read from this memory
system.mem_ctrls.bytes_read::cpu00.data         22080                       # Number of bytes read from this memory
system.mem_ctrls.bytes_read::cpu01.inst          3328                       # Number of bytes read from this memory
system.mem_ctrls.bytes_read::cpu01.data           960                       # Number of bytes read from this memory
system.mem_ctrls.bytes_read::cpu02.inst          3520                       # Number of bytes read from this memory
system.mem_ctrls.bytes_read::cpu02.data          1024                       # Number of bytes read from this memory
system.mem_ctrls.bytes_read::cpu03.inst          3392                       # Number of bytes read from this memory
system.mem_ctrls.bytes_read::cpu03.data          1024                       # Number of bytes read from this memory
system.mem_ctrls.bytes_read::cpu04.inst          3264                       # Number of bytes read from this memory
system.mem_ctrls.bytes_read::cpu04.data           960                       # Number of bytes read from this memory
system.mem_ctrls.bytes_read::cpu05.inst          3200                       # Number of bytes read from this memory
system.mem_ctrls.bytes_read::cpu05.data           960                       # Number of bytes read from this memory
system.mem_ctrls.bytes_read::cpu06.inst          3328                       # Number of bytes read from this memory
system.mem_ctrls.bytes_read::cpu06.data          1024                       # Number of bytes read from this memory
system.mem_ctrls.bytes_read::cpu07.inst          3328                       # Number of bytes read from this memory
system.mem_ctrls.bytes_read::cpu07.data          1024                       # Number of bytes read from this memory
system.mem_ctrls.bytes_read::cpu08.inst          3328                       # Number of bytes read from this memory
system.mem_ctrls.bytes_read::cpu08.data          1024                       # Number of bytes read from this memory
system.mem_ctrls.bytes_read::cpu09.inst          3392                       # Number of bytes read from this memory
system.mem_ctrls.bytes_read::cpu09.data          1024                       # Number of bytes read from this memory
system.mem_ctrls.bytes_read::cpu10.inst          3328                       # Number of bytes read from this memory
system.mem_ctrls.bytes_read::cpu10.data          1024                       # Number of bytes read from this memory
system.mem_ctrls.bytes_read::cpu11.inst          3328                       # Number of bytes read from this memory
system.mem_ctrls.bytes_read::cpu11.data           960                       # Number of bytes read from this memory
system.mem_ctrls.bytes_read::cpu12.inst          3520                       # Number of bytes read from this memory
system.mem_ctrls.bytes_read::cpu12.data          1088                       # Number of bytes read from this memory
system.mem_ctrls.bytes_read::cpu13.inst          3328                       # Number of bytes read from this memory
system.mem_ctrls.bytes_read::cpu13.data           960                       # Number of bytes read from this memory
system.mem_ctrls.bytes_read::cpu14.inst          3392                       # Number of bytes read from this memory
system.mem_ctrls.bytes_read::cpu14.data           960                       # Number of bytes read from this memory
system.mem_ctrls.bytes_read::cpu15.inst          3392                       # Number of bytes read from this memory
system.mem_ctrls.bytes_read::cpu15.data          1024                       # Number of bytes read from this memory
system.mem_ctrls.bytes_read::total             125824                       # Number of bytes read from this memory
system.mem_ctrls.bytes_inst_read::cpu00.inst        38336                       # Number of instructions bytes read from this memory
system.mem_ctrls.bytes_inst_read::cpu01.inst         3328                       # Number of instructions bytes read from this memory
system.mem_ctrls.bytes_inst_read::cpu02.inst         3520                       # Number of instructions bytes read from this memory
system.mem_ctrls.bytes_inst_read::cpu03.inst         3392                       # Number of instructions bytes read from this memory
system.mem_ctrls.bytes_inst_read::cpu04.inst         3264                       # Number of instructions bytes read from this memory
system.mem_ctrls.bytes_inst_read::cpu05.inst         3200                       # Number of instructions bytes read from this memory
system.mem_ctrls.bytes_inst_read::cpu06.inst         3328                       # Number of instructions bytes read from this memory
system.mem_ctrls.bytes_inst_read::cpu07.inst         3328                       # Number of instructions bytes read from this memory
system.mem_ctrls.bytes_inst_read::cpu08.inst         3328                       # Number of instructions bytes read from this memory
system.mem_ctrls.bytes_inst_read::cpu09.inst         3392                       # Number of instructions bytes read from this memory
system.mem_ctrls.bytes_inst_read::cpu10.inst         3328                       # Number of instructions bytes read from this memory
system.mem_ctrls.bytes_inst_read::cpu11.inst         3328                       # Number of instructions bytes read from this memory
system.mem_ctrls.bytes_inst_read::cpu12.inst         3520                       # Number of instructions bytes read from this memory
system.mem_ctrls.bytes_inst_read::cpu13.inst         3328                       # Number of instructions bytes read from this memory
system.mem_ctrls.bytes_inst_read::cpu14.inst         3392                       # Number of instructions bytes read from this memory
system.mem_ctrls.bytes_inst_read::cpu15.inst         3392                       # Number of instructions bytes read from this memory
system.mem_ctrls.bytes_inst_read::total         88704                       # Number of instructions bytes read from this memory
system.mem_ctrls.bytes_written::writebacks         1024                       # Number of bytes written to this memory
system.mem_ctrls.bytes_written::total            1024                       # Number of bytes written to this memory
system.mem_ctrls.num_reads::cpu00.inst            599                       # Number of read requests responded to by this memory
system.mem_ctrls.num_reads::cpu00.data            345                       # Number of read requests responded to by this memory
system.mem_ctrls.num_reads::cpu01.inst             52                       # Number of read requests responded to by this memory
system.mem_ctrls.num_reads::cpu01.data             15                       # Number of read requests responded to by this memory
system.mem_ctrls.num_reads::cpu02.inst             55                       # Number of read requests responded to by this memory
system.mem_ctrls.num_reads::cpu02.data             16                       # Number of read requests responded to by this memory
system.mem_ctrls.num_reads::cpu03.inst             53                       # Number of read requests responded to by this memory
system.mem_ctrls.num_reads::cpu03.data             16                       # Number of read requests responded to by this memory
system.mem_ctrls.num_reads::cpu04.inst             51                       # Number of read requests responded to by this memory
system.mem_ctrls.num_reads::cpu04.data             15                       # Number of read requests responded to by this memory
system.mem_ctrls.num_reads::cpu05.inst             50                       # Number of read requests responded to by this memory
system.mem_ctrls.num_reads::cpu05.data             15                       # Number of read requests responded to by this memory
system.mem_ctrls.num_reads::cpu06.inst             52                       # Number of read requests responded to by this memory
system.mem_ctrls.num_reads::cpu06.data             16                       # Number of read requests responded to by this memory
system.mem_ctrls.num_reads::cpu07.inst             52                       # Number of read requests responded to by this memory
system.mem_ctrls.num_reads::cpu07.data             16                       # Number of read requests responded to by this memory
system.mem_ctrls.num_reads::cpu08.inst             52                       # Number of read requests responded to by this memory
system.mem_ctrls.num_reads::cpu08.data             16                       # Number of read requests responded to by this memory
system.mem_ctrls.num_reads::cpu09.inst             53                       # Number of read requests responded to by this memory
system.mem_ctrls.num_reads::cpu09.data             16                       # Number of read requests responded to by this memory
system.mem_ctrls.num_reads::cpu10.inst             52                       # Number of read requests responded to by this memory
system.mem_ctrls.num_reads::cpu10.data             16                       # Number of read requests responded to by this memory
system.mem_ctrls.num_reads::cpu11.inst             52                       # Number of read requests responded to by this memory
system.mem_ctrls.num_reads::cpu11.data             15                       # Number of read requests responded to by this memory
system.mem_ctrls.num_reads::cpu12.inst             55                       # Number of read requests responded to by this memory
system.mem_ctrls.num_reads::cpu12.data             17                       # Number of read requests responded to by this memory
system.mem_ctrls.num_reads::cpu13.inst             52                       # Number of read requests responded to by this memory
system.mem_ctrls.num_reads::cpu13.data             15                       # Number of read requests responded to by this memory
system.mem_ctrls.num_reads::cpu14.inst             53                       # Number of read requests responded to by this memory
system.mem_ctrls.num_reads::cpu14.data             15                       # Number of read requests responded to by this memory
system.mem_ctrls.num_reads::cpu15.inst             53                       # Number of read requests responded to by this memory
system.mem_ctrls.num_reads::cpu15.data             16                       # Number of read requests responded to by this memory
system.mem_ctrls.num_reads::total                1966                       # Number of read requests responded to by this memory
system.mem_ctrls.num_writes::writebacks            16                       # Number of write requests responded to by this memory
system.mem_ctrls.num_writes::total                 16                       # Number of write requests responded to by this memory
system.mem_ctrls.bw_read::cpu00.inst        941581009                       # Total read bandwidth from this memory (bytes/s)
system.mem_ctrls.bw_read::cpu00.data        542312935                       # Total read bandwidth from this memory (bytes/s)
system.mem_ctrls.bw_read::cpu01.inst         81739921                       # Total read bandwidth from this memory (bytes/s)
system.mem_ctrls.bw_read::cpu01.data         23578823                       # Total read bandwidth from this memory (bytes/s)
system.mem_ctrls.bw_read::cpu02.inst         86455685                       # Total read bandwidth from this memory (bytes/s)
system.mem_ctrls.bw_read::cpu02.data         25150745                       # Total read bandwidth from this memory (bytes/s)
system.mem_ctrls.bw_read::cpu03.inst         83311842                       # Total read bandwidth from this memory (bytes/s)
system.mem_ctrls.bw_read::cpu03.data         25150745                       # Total read bandwidth from this memory (bytes/s)
system.mem_ctrls.bw_read::cpu04.inst         80167999                       # Total read bandwidth from this memory (bytes/s)
system.mem_ctrls.bw_read::cpu04.data         23578823                       # Total read bandwidth from this memory (bytes/s)
system.mem_ctrls.bw_read::cpu05.inst         78596078                       # Total read bandwidth from this memory (bytes/s)
system.mem_ctrls.bw_read::cpu05.data         23578823                       # Total read bandwidth from this memory (bytes/s)
system.mem_ctrls.bw_read::cpu06.inst         81739921                       # Total read bandwidth from this memory (bytes/s)
system.mem_ctrls.bw_read::cpu06.data         25150745                       # Total read bandwidth from this memory (bytes/s)
system.mem_ctrls.bw_read::cpu07.inst         81739921                       # Total read bandwidth from this memory (bytes/s)
system.mem_ctrls.bw_read::cpu07.data         25150745                       # Total read bandwidth from this memory (bytes/s)
system.mem_ctrls.bw_read::cpu08.inst         81739921                       # Total read bandwidth from this memory (bytes/s)
system.mem_ctrls.bw_read::cpu08.data         25150745                       # Total read bandwidth from this memory (bytes/s)
system.mem_ctrls.bw_read::cpu09.inst         83311842                       # Total read bandwidth from this memory (bytes/s)
system.mem_ctrls.bw_read::cpu09.data         25150745                       # Total read bandwidth from this memory (bytes/s)
system.mem_ctrls.bw_read::cpu10.inst         81739921                       # Total read bandwidth from this memory (bytes/s)
system.mem_ctrls.bw_read::cpu10.data         25150745                       # Total read bandwidth from this memory (bytes/s)
system.mem_ctrls.bw_read::cpu11.inst         81739921                       # Total read bandwidth from this memory (bytes/s)
system.mem_ctrls.bw_read::cpu11.data         23578823                       # Total read bandwidth from this memory (bytes/s)
system.mem_ctrls.bw_read::cpu12.inst         86455685                       # Total read bandwidth from this memory (bytes/s)
system.mem_ctrls.bw_read::cpu12.data         26722666                       # Total read bandwidth from this memory (bytes/s)
system.mem_ctrls.bw_read::cpu13.inst         81739921                       # Total read bandwidth from this memory (bytes/s)
system.mem_ctrls.bw_read::cpu13.data         23578823                       # Total read bandwidth from this memory (bytes/s)
system.mem_ctrls.bw_read::cpu14.inst         83311842                       # Total read bandwidth from this memory (bytes/s)
system.mem_ctrls.bw_read::cpu14.data         23578823                       # Total read bandwidth from this memory (bytes/s)
system.mem_ctrls.bw_read::cpu15.inst         83311842                       # Total read bandwidth from this memory (bytes/s)
system.mem_ctrls.bw_read::cpu15.data         25150745                       # Total read bandwidth from this memory (bytes/s)
system.mem_ctrls.bw_read::total            3090397770                       # Total read bandwidth from this memory (bytes/s)
system.mem_ctrls.bw_inst_read::cpu00.inst    941581009                       # Instruction read bandwidth from this memory (bytes/s)
system.mem_ctrls.bw_inst_read::cpu01.inst     81739921                       # Instruction read bandwidth from this memory (bytes/s)
system.mem_ctrls.bw_inst_read::cpu02.inst     86455685                       # Instruction read bandwidth from this memory (bytes/s)
system.mem_ctrls.bw_inst_read::cpu03.inst     83311842                       # Instruction read bandwidth from this memory (bytes/s)
system.mem_ctrls.bw_inst_read::cpu04.inst     80167999                       # Instruction read bandwidth from this memory (bytes/s)
system.mem_ctrls.bw_inst_read::cpu05.inst     78596078                       # Instruction read bandwidth from this memory (bytes/s)
system.mem_ctrls.bw_inst_read::cpu06.inst     81739921                       # Instruction read bandwidth from this memory (bytes/s)
system.mem_ctrls.bw_inst_read::cpu07.inst     81739921                       # Instruction read bandwidth from this memory (bytes/s)
system.mem_ctrls.bw_inst_read::cpu08.inst     81739921                       # Instruction read bandwidth from this memory (bytes/s)
system.mem_ctrls.bw_inst_read::cpu09.inst     83311842                       # Instruction read bandwidth from this memory (bytes/s)
system.mem_ctrls.bw_inst_read::cpu10.inst     81739921                       # Instruction read bandwidth from this memory (bytes/s)
system.mem_ctrls.bw_inst_read::cpu11.inst     81739921                       # Instruction read bandwidth from this memory (bytes/s)
system.mem_ctrls.bw_inst_read::cpu12.inst     86455685                       # Instruction read bandwidth from this memory (bytes/s)
system.mem_ctrls.bw_inst_read::cpu13.inst     81739921                       # Instruction read bandwidth from this memory (bytes/s)
system.mem_ctrls.bw_inst_read::cpu14.inst     83311842                       # Instruction read bandwidth from this memory (bytes/s)
system.mem_ctrls.bw_inst_read::cpu15.inst     83311842                       # Instruction read bandwidth from this memory (bytes/s)
system.mem_ctrls.bw_inst_read::total       2178683270                       # Instruction read bandwidth from this memory (bytes/s)
system.mem_ctrls.bw_write::writebacks        25150745                       # Write bandwidth from this memory (bytes/s)
system.mem_ctrls.bw_write::total             25150745                       # Write bandwidth from this memory (bytes/s)
system.mem_ctrls.bw_total::writebacks        25150745                       # Total bandwidth to/from this memory (bytes/s)
system.mem_ctrls.bw_total::cpu00.inst       941581009                       # Total bandwidth to/from this memory (bytes/s)
system.mem_ctrls.bw_total::cpu00.data       542312935                       # Total bandwidth to/from this memory (bytes/s)
system.mem_ctrls.bw_total::cpu01.inst        81739921                       # Total bandwidth to/from this memory (bytes/s)
system.mem_ctrls.bw_total::cpu01.data        23578823                       # Total bandwidth to/from this memory (bytes/s)
system.mem_ctrls.bw_total::cpu02.inst        86455685                       # Total bandwidth to/from this memory (bytes/s)
system.mem_ctrls.bw_total::cpu02.data        25150745                       # Total bandwidth to/from this memory (bytes/s)
system.mem_ctrls.bw_total::cpu03.inst        83311842                       # Total bandwidth to/from this memory (bytes/s)
system.mem_ctrls.bw_total::cpu03.data        25150745                       # Total bandwidth to/from this memory (bytes/s)
system.mem_ctrls.bw_total::cpu04.inst        80167999                       # Total bandwidth to/from this memory (bytes/s)
system.mem_ctrls.bw_total::cpu04.data        23578823                       # Total bandwidth to/from this memory (bytes/s)
system.mem_ctrls.bw_total::cpu05.inst        78596078                       # Total bandwidth to/from this memory (bytes/s)
system.mem_ctrls.bw_total::cpu05.data        23578823                       # Total bandwidth to/from this memory (bytes/s)
system.mem_ctrls.bw_total::cpu06.inst        81739921                       # Total bandwidth to/from this memory (bytes/s)
system.mem_ctrls.bw_total::cpu06.data        25150745                       # Total bandwidth to/from this memory (bytes/s)
system.mem_ctrls.bw_total::cpu07.inst        81739921                       # Total bandwidth to/from this memory (bytes/s)
system.mem_ctrls.bw_total::cpu07.data        25150745                       # Total bandwidth to/from this memory (bytes/s)
system.mem_ctrls.bw_total::cpu08.inst        81739921                       # Total bandwidth to/from this memory (bytes/s)
system.mem_ctrls.bw_total::cpu08.data        25150745                       # Total bandwidth to/from this memory (bytes/s)
system.mem_ctrls.bw_total::cpu09.inst        83311842                       # Total bandwidth to/from this memory (bytes/s)
system.mem_ctrls.bw_total::cpu09.data        25150745                       # Total bandwidth to/from this memory (bytes/s)
system.mem_ctrls.bw_total::cpu10.inst        81739921                       # Total bandwidth to/from this memory (bytes/s)
system.mem_ctrls.bw_total::cpu10.data        25150745                       # Total bandwidth to/from this memory (bytes/s)
system.mem_ctrls.bw_total::cpu11.inst        81739921                       # Total bandwidth to/from this memory (bytes/s)
system.mem_ctrls.bw_total::cpu11.data        23578823                       # Total bandwidth to/from this memory (bytes/s)
system.mem_ctrls.bw_total::cpu12.inst        86455685                       # Total bandwidth to/from this memory (bytes/s)
system.mem_ctrls.bw_total::cpu12.data        26722666                       # Total bandwidth to/from this memory (bytes/s)
system.mem_ctrls.bw_total::cpu13.inst        81739921                       # Total bandwidth to/from this memory (bytes/s)
system.mem_ctrls.bw_total::cpu13.data        23578823                       # Total bandwidth to/from this memory (bytes/s)
system.mem_ctrls.bw_total::cpu14.inst        83311842                       # Total bandwidth to/from this memory (bytes/s)
system.mem_ctrls.bw_total::cpu14.data        23578823                       # Total bandwidth to/from this memory (bytes/s)
system.mem_ctrls.bw_total::cpu15.inst        83311842                       # Total bandwidth to/from this memory (bytes/s)
system.mem_ctrls.bw_total::cpu15.data        25150745                       # Total bandwidth to/from this memory (bytes/s)
system.mem_ctrls.bw_total::total           3115548515                       # Total bandwidth to/from this memory (bytes/s)
system.mem_ctrls.readReqs                        1967                       # Number of read requests accepted
system.mem_ctrls.writeReqs                         16                       # Number of write requests accepted
system.mem_ctrls.readBursts                      1967                       # Number of DRAM read bursts, including those serviced by the write queue
system.mem_ctrls.writeBursts                       16                       # Number of DRAM write bursts, including those merged in the write queue
system.mem_ctrls.bytesReadDRAM                 125888                       # Total number of bytes read from DRAM
system.mem_ctrls.bytesReadWrQ                       0                       # Total number of bytes read from write queue
system.mem_ctrls.bytesWritten                       0                       # Total number of bytes written to DRAM
system.mem_ctrls.bytesReadSys                  125888                       # Total read bytes from the system interface side
system.mem_ctrls.bytesWrittenSys                 1024                       # Total written bytes from the system interface side
system.mem_ctrls.servicedByWrQ                      0                       # Number of DRAM read bursts serviced by the write queue
system.mem_ctrls.mergedWrBursts                     0                       # Number of DRAM write bursts merged with an existing one
system.mem_ctrls.neitherReadNorWriteReqs           10                       # Number of requests that are neither read nor write
system.mem_ctrls.perBankRdBursts::0               259                       # Per bank write bursts
system.mem_ctrls.perBankRdBursts::1               605                       # Per bank write bursts
system.mem_ctrls.perBankRdBursts::2               313                       # Per bank write bursts
system.mem_ctrls.perBankRdBursts::3               227                       # Per bank write bursts
system.mem_ctrls.perBankRdBursts::4                82                       # Per bank write bursts
system.mem_ctrls.perBankRdBursts::5                83                       # Per bank write bursts
system.mem_ctrls.perBankRdBursts::6               154                       # Per bank write bursts
system.mem_ctrls.perBankRdBursts::7                33                       # Per bank write bursts
system.mem_ctrls.perBankRdBursts::8                14                       # Per bank write bursts
system.mem_ctrls.perBankRdBursts::9                10                       # Per bank write bursts
system.mem_ctrls.perBankRdBursts::10                0                       # Per bank write bursts
system.mem_ctrls.perBankRdBursts::11               14                       # Per bank write bursts
system.mem_ctrls.perBankRdBursts::12                9                       # Per bank write bursts
system.mem_ctrls.perBankRdBursts::13               39                       # Per bank write bursts
system.mem_ctrls.perBankRdBursts::14               40                       # Per bank write bursts
system.mem_ctrls.perBankRdBursts::15               85                       # Per bank write bursts
system.mem_ctrls.perBankWrBursts::0                 0                       # Per bank write bursts
system.mem_ctrls.perBankWrBursts::1                 0                       # Per bank write bursts
system.mem_ctrls.perBankWrBursts::2                 0                       # Per bank write bursts
system.mem_ctrls.perBankWrBursts::3                 0                       # Per bank write bursts
system.mem_ctrls.perBankWrBursts::4                 0                       # Per bank write bursts
system.mem_ctrls.perBankWrBursts::5                 0                       # Per bank write bursts
system.mem_ctrls.perBankWrBursts::6                 0                       # Per bank write bursts
system.mem_ctrls.perBankWrBursts::7                 0                       # Per bank write bursts
system.mem_ctrls.perBankWrBursts::8                 0                       # Per bank write bursts
system.mem_ctrls.perBankWrBursts::9                 0                       # Per bank write bursts
system.mem_ctrls.perBankWrBursts::10                0                       # Per bank write bursts
system.mem_ctrls.perBankWrBursts::11                0                       # Per bank write bursts
system.mem_ctrls.perBankWrBursts::12                0                       # Per bank write bursts
system.mem_ctrls.perBankWrBursts::13                0                       # Per bank write bursts
system.mem_ctrls.perBankWrBursts::14                0                       # Per bank write bursts
system.mem_ctrls.perBankWrBursts::15                0                       # Per bank write bursts
system.mem_ctrls.numRdRetry                         7                       # Number of times read queue was full causing retry
system.mem_ctrls.numWrRetry                         0                       # Number of times write queue was full causing retry
system.mem_ctrls.totGap                      40707000                       # Total gap between requests
system.mem_ctrls.readPktSize::0                     0                       # Read request sizes (log2)
system.mem_ctrls.readPktSize::1                     0                       # Read request sizes (log2)
system.mem_ctrls.readPktSize::2                     0                       # Read request sizes (log2)
system.mem_ctrls.readPktSize::3                     0                       # Read request sizes (log2)
system.mem_ctrls.readPktSize::4                     0                       # Read request sizes (log2)
system.mem_ctrls.readPktSize::5                     0                       # Read request sizes (log2)
system.mem_ctrls.readPktSize::6                  1967                       # Read request sizes (log2)
system.mem_ctrls.writePktSize::0                    0                       # Write request sizes (log2)
system.mem_ctrls.writePktSize::1                    0                       # Write request sizes (log2)
system.mem_ctrls.writePktSize::2                    0                       # Write request sizes (log2)
system.mem_ctrls.writePktSize::3                    0                       # Write request sizes (log2)
system.mem_ctrls.writePktSize::4                    0                       # Write request sizes (log2)
system.mem_ctrls.writePktSize::5                    0                       # Write request sizes (log2)
system.mem_ctrls.writePktSize::6                   16                       # Write request sizes (log2)
system.mem_ctrls.rdQLenPdf::0                     471                       # What read queue length does an incoming req see
system.mem_ctrls.rdQLenPdf::1                     299                       # What read queue length does an incoming req see
system.mem_ctrls.rdQLenPdf::2                     114                       # What read queue length does an incoming req see
system.mem_ctrls.rdQLenPdf::3                      58                       # What read queue length does an incoming req see
system.mem_ctrls.rdQLenPdf::4                      41                       # What read queue length does an incoming req see
system.mem_ctrls.rdQLenPdf::5                      48                       # What read queue length does an incoming req see
system.mem_ctrls.rdQLenPdf::6                      56                       # What read queue length does an incoming req see
system.mem_ctrls.rdQLenPdf::7                      67                       # What read queue length does an incoming req see
system.mem_ctrls.rdQLenPdf::8                      77                       # What read queue length does an incoming req see
system.mem_ctrls.rdQLenPdf::9                      67                       # What read queue length does an incoming req see
system.mem_ctrls.rdQLenPdf::10                     93                       # What read queue length does an incoming req see
system.mem_ctrls.rdQLenPdf::11                     74                       # What read queue length does an incoming req see
system.mem_ctrls.rdQLenPdf::12                     69                       # What read queue length does an incoming req see
system.mem_ctrls.rdQLenPdf::13                     43                       # What read queue length does an incoming req see
system.mem_ctrls.rdQLenPdf::14                     53                       # What read queue length does an incoming req see
system.mem_ctrls.rdQLenPdf::15                     53                       # What read queue length does an incoming req see
system.mem_ctrls.rdQLenPdf::16                     41                       # What read queue length does an incoming req see
system.mem_ctrls.rdQLenPdf::17                     26                       # What read queue length does an incoming req see
system.mem_ctrls.rdQLenPdf::18                     31                       # What read queue length does an incoming req see
system.mem_ctrls.rdQLenPdf::19                     16                       # What read queue length does an incoming req see
system.mem_ctrls.rdQLenPdf::20                     16                       # What read queue length does an incoming req see
system.mem_ctrls.rdQLenPdf::21                     13                       # What read queue length does an incoming req see
system.mem_ctrls.rdQLenPdf::22                     18                       # What read queue length does an incoming req see
system.mem_ctrls.rdQLenPdf::23                     17                       # What read queue length does an incoming req see
system.mem_ctrls.rdQLenPdf::24                     14                       # What read queue length does an incoming req see
system.mem_ctrls.rdQLenPdf::25                     13                       # What read queue length does an incoming req see
system.mem_ctrls.rdQLenPdf::26                      9                       # What read queue length does an incoming req see
system.mem_ctrls.rdQLenPdf::27                     12                       # What read queue length does an incoming req see
system.mem_ctrls.rdQLenPdf::28                     12                       # What read queue length does an incoming req see
system.mem_ctrls.rdQLenPdf::29                     13                       # What read queue length does an incoming req see
system.mem_ctrls.rdQLenPdf::30                     14                       # What read queue length does an incoming req see
system.mem_ctrls.rdQLenPdf::31                     19                       # What read queue length does an incoming req see
system.mem_ctrls.wrQLenPdf::0                       1                       # What write queue length does an incoming req see
system.mem_ctrls.wrQLenPdf::1                       1                       # What write queue length does an incoming req see
system.mem_ctrls.wrQLenPdf::2                       1                       # What write queue length does an incoming req see
system.mem_ctrls.wrQLenPdf::3                       1                       # What write queue length does an incoming req see
system.mem_ctrls.wrQLenPdf::4                       1                       # What write queue length does an incoming req see
system.mem_ctrls.wrQLenPdf::5                       1                       # What write queue length does an incoming req see
system.mem_ctrls.wrQLenPdf::6                       1                       # What write queue length does an incoming req see
system.mem_ctrls.wrQLenPdf::7                       1                       # What write queue length does an incoming req see
system.mem_ctrls.wrQLenPdf::8                       1                       # What write queue length does an incoming req see
system.mem_ctrls.wrQLenPdf::9                       1                       # What write queue length does an incoming req see
system.mem_ctrls.wrQLenPdf::10                      1                       # What write queue length does an incoming req see
system.mem_ctrls.wrQLenPdf::11                      1                       # What write queue length does an incoming req see
system.mem_ctrls.wrQLenPdf::12                      1                       # What write queue length does an incoming req see
system.mem_ctrls.wrQLenPdf::13                      1                       # What write queue length does an incoming req see
system.mem_ctrls.wrQLenPdf::14                      1                       # What write queue length does an incoming req see
system.mem_ctrls.wrQLenPdf::15                      1                       # What write queue length does an incoming req see
system.mem_ctrls.wrQLenPdf::16                      0                       # What write queue length does an incoming req see
system.mem_ctrls.wrQLenPdf::17                      0                       # What write queue length does an incoming req see
system.mem_ctrls.wrQLenPdf::18                      0                       # What write queue length does an incoming req see
system.mem_ctrls.wrQLenPdf::19                      0                       # What write queue length does an incoming req see
system.mem_ctrls.wrQLenPdf::20                      0                       # What write queue length does an incoming req see
system.mem_ctrls.wrQLenPdf::21                      0                       # What write queue length does an incoming req see
system.mem_ctrls.wrQLenPdf::22                      0                       # What write queue length does an incoming req see
system.mem_ctrls.wrQLenPdf::23                      0                       # What write queue length does an incoming req see
system.mem_ctrls.wrQLenPdf::24                      0                       # What write queue length does an incoming req see
system.mem_ctrls.wrQLenPdf::25                      0                       # What write queue length does an incoming req see
system.mem_ctrls.wrQLenPdf::26                      0                       # What write queue length does an incoming req see
system.mem_ctrls.wrQLenPdf::27                      0                       # What write queue length does an incoming req see
system.mem_ctrls.wrQLenPdf::28                      0                       # What write queue length does an incoming req see
system.mem_ctrls.wrQLenPdf::29                      0                       # What write queue length does an incoming req see
system.mem_ctrls.wrQLenPdf::30                      0                       # What write queue length does an incoming req see
system.mem_ctrls.wrQLenPdf::31                      0                       # What write queue length does an incoming req see
system.mem_ctrls.wrQLenPdf::32                      0                       # What write queue length does an incoming req see
system.mem_ctrls.wrQLenPdf::33                      0                       # What write queue length does an incoming req see
system.mem_ctrls.wrQLenPdf::34                      0                       # What write queue length does an incoming req see
system.mem_ctrls.wrQLenPdf::35                      0                       # What write queue length does an incoming req see
system.mem_ctrls.wrQLenPdf::36                      0                       # What write queue length does an incoming req see
system.mem_ctrls.wrQLenPdf::37                      0                       # What write queue length does an incoming req see
system.mem_ctrls.wrQLenPdf::38                      0                       # What write queue length does an incoming req see
system.mem_ctrls.wrQLenPdf::39                      0                       # What write queue length does an incoming req see
system.mem_ctrls.wrQLenPdf::40                      0                       # What write queue length does an incoming req see
system.mem_ctrls.wrQLenPdf::41                      0                       # What write queue length does an incoming req see
system.mem_ctrls.wrQLenPdf::42                      0                       # What write queue length does an incoming req see
system.mem_ctrls.wrQLenPdf::43                      0                       # What write queue length does an incoming req see
system.mem_ctrls.wrQLenPdf::44                      0                       # What write queue length does an incoming req see
system.mem_ctrls.wrQLenPdf::45                      0                       # What write queue length does an incoming req see
system.mem_ctrls.wrQLenPdf::46                      0                       # What write queue length does an incoming req see
system.mem_ctrls.wrQLenPdf::47                      0                       # What write queue length does an incoming req see
system.mem_ctrls.wrQLenPdf::48                      0                       # What write queue length does an incoming req see
system.mem_ctrls.wrQLenPdf::49                      0                       # What write queue length does an incoming req see
system.mem_ctrls.wrQLenPdf::50                      0                       # What write queue length does an incoming req see
system.mem_ctrls.wrQLenPdf::51                      0                       # What write queue length does an incoming req see
system.mem_ctrls.wrQLenPdf::52                      0                       # What write queue length does an incoming req see
system.mem_ctrls.wrQLenPdf::53                      0                       # What write queue length does an incoming req see
system.mem_ctrls.wrQLenPdf::54                      0                       # What write queue length does an incoming req see
system.mem_ctrls.wrQLenPdf::55                      0                       # What write queue length does an incoming req see
system.mem_ctrls.wrQLenPdf::56                      0                       # What write queue length does an incoming req see
system.mem_ctrls.wrQLenPdf::57                      0                       # What write queue length does an incoming req see
system.mem_ctrls.wrQLenPdf::58                      0                       # What write queue length does an incoming req see
system.mem_ctrls.wrQLenPdf::59                      0                       # What write queue length does an incoming req see
system.mem_ctrls.wrQLenPdf::60                      0                       # What write queue length does an incoming req see
system.mem_ctrls.wrQLenPdf::61                      0                       # What write queue length does an incoming req see
system.mem_ctrls.wrQLenPdf::62                      0                       # What write queue length does an incoming req see
system.mem_ctrls.wrQLenPdf::63                      0                       # What write queue length does an incoming req see
system.mem_ctrls.bytesPerActivate::samples          409                       # Bytes accessed per row activation
system.mem_ctrls.bytesPerActivate::mean    303.726161                       # Bytes accessed per row activation
system.mem_ctrls.bytesPerActivate::gmean   165.299520                       # Bytes accessed per row activation
system.mem_ctrls.bytesPerActivate::stdev   346.850823                       # Bytes accessed per row activation
system.mem_ctrls.bytesPerActivate::0-127          193     47.19%     47.19% # Bytes accessed per row activation
system.mem_ctrls.bytesPerActivate::128-255           73     17.85%     65.04% # Bytes accessed per row activation
system.mem_ctrls.bytesPerActivate::256-383           25      6.11%     71.15% # Bytes accessed per row activation
system.mem_ctrls.bytesPerActivate::384-511           24      5.87%     77.02% # Bytes accessed per row activation
system.mem_ctrls.bytesPerActivate::512-639           16      3.91%     80.93% # Bytes accessed per row activation
system.mem_ctrls.bytesPerActivate::640-767            8      1.96%     82.89% # Bytes accessed per row activation
system.mem_ctrls.bytesPerActivate::768-895            8      1.96%     84.84% # Bytes accessed per row activation
system.mem_ctrls.bytesPerActivate::896-1023            4      0.98%     85.82% # Bytes accessed per row activation
system.mem_ctrls.bytesPerActivate::1024-1151           58     14.18%    100.00% # Bytes accessed per row activation
system.mem_ctrls.bytesPerActivate::total          409                       # Bytes accessed per row activation
system.mem_ctrls.totQLat                     88527250                       # Total ticks spent queuing
system.mem_ctrls.totMemAccLat               125408500                       # Total ticks spent from burst creation until serviced by the DRAM
system.mem_ctrls.totBusLat                    9835000                       # Total ticks spent in databus transfers
system.mem_ctrls.avgQLat                     45006.23                       # Average queueing delay per DRAM burst
system.mem_ctrls.avgBusLat                    5000.00                       # Average bus latency per DRAM burst
system.mem_ctrls.avgMemAccLat                63756.23                       # Average memory access latency per DRAM burst
system.mem_ctrls.avgRdBW                      3091.97                       # Average DRAM read bandwidth in MiByte/s
system.mem_ctrls.avgWrBW                         0.00                       # Average achieved write bandwidth in MiByte/s
system.mem_ctrls.avgRdBWSys                   3091.97                       # Average system read bandwidth in MiByte/s
system.mem_ctrls.avgWrBWSys                     25.15                       # Average system write bandwidth in MiByte/s
system.mem_ctrls.peakBW                      12800.00                       # Theoretical peak bandwidth in MiByte/s
system.mem_ctrls.busUtil                        24.16                       # Data bus utilization in percentage
system.mem_ctrls.busUtilRead                    24.16                       # Data bus utilization in percentage for reads
system.mem_ctrls.busUtilWrite                    0.00                       # Data bus utilization in percentage for writes
system.mem_ctrls.avgRdQLen                       4.16                       # Average read queue length when enqueuing
system.mem_ctrls.avgWrQLen                       3.77                       # Average write queue length when enqueuing
system.mem_ctrls.readRowHits                     1550                       # Number of row buffer hits during reads
system.mem_ctrls.writeRowHits                       0                       # Number of row buffer hits during writes
system.mem_ctrls.readRowHitRate                 78.80                       # Row buffer hit rate for reads
system.mem_ctrls.writeRowHitRate                 0.00                       # Row buffer hit rate for writes
system.mem_ctrls.avgGap                      20527.99                       # Average gap between requests
system.mem_ctrls.pageHitRate                    78.16                       # Row buffer hit rate, read and write combined
system.mem_ctrls_0.actEnergy                  2835000                       # Energy for activate commands per rank (pJ)
system.mem_ctrls_0.preEnergy                  1546875                       # Energy for precharge commands per rank (pJ)
system.mem_ctrls_0.readEnergy                13611000                       # Energy for read commands per rank (pJ)
system.mem_ctrls_0.writeEnergy                      0                       # Energy for write commands per rank (pJ)
system.mem_ctrls_0.refreshEnergy              2542800                       # Energy for refresh commands per rank (pJ)
system.mem_ctrls_0.actBackEnergy             26670015                       # Energy for active background per rank (pJ)
system.mem_ctrls_0.preBackEnergy               120000                       # Energy for precharge background per rank (pJ)
system.mem_ctrls_0.totalEnergy               47325690                       # Total energy per rank (pJ)
system.mem_ctrls_0.averagePower           1207.557554                       # Core power per rank (mW)
system.mem_ctrls_0.memoryStateTime::IDLE        75500                       # Time in different power states
system.mem_ctrls_0.memoryStateTime::REF       1300000                       # Time in different power states
system.mem_ctrls_0.memoryStateTime::PRE_PDN            0                       # Time in different power states
system.mem_ctrls_0.memoryStateTime::ACT      37829500                       # Time in different power states
system.mem_ctrls_0.memoryStateTime::ACT_PDN            0                       # Time in different power states
system.mem_ctrls_1.actEnergy                   234360                       # Energy for activate commands per rank (pJ)
system.mem_ctrls_1.preEnergy                   127875                       # Energy for precharge commands per rank (pJ)
system.mem_ctrls_1.readEnergy                 1365000                       # Energy for read commands per rank (pJ)
system.mem_ctrls_1.writeEnergy                      0                       # Energy for write commands per rank (pJ)
system.mem_ctrls_1.refreshEnergy              2542800                       # Energy for refresh commands per rank (pJ)
system.mem_ctrls_1.actBackEnergy             26171550                       # Energy for active background per rank (pJ)
system.mem_ctrls_1.preBackEnergy               557250                       # Energy for precharge background per rank (pJ)
system.mem_ctrls_1.totalEnergy               30998835                       # Total energy per rank (pJ)
system.mem_ctrls_1.averagePower            790.963161                       # Core power per rank (mW)
system.mem_ctrls_1.memoryStateTime::IDLE      1016750                       # Time in different power states
system.mem_ctrls_1.memoryStateTime::REF       1300000                       # Time in different power states
system.mem_ctrls_1.memoryStateTime::PRE_PDN            0                       # Time in different power states
system.mem_ctrls_1.memoryStateTime::ACT      37115250                       # Time in different power states
system.mem_ctrls_1.memoryStateTime::ACT_PDN            0                       # Time in different power states
system.cpu00.branchPred.lookups                  9961                       # Number of BP lookups
system.cpu00.branchPred.condPredicted            7600                       # Number of conditional branches predicted
system.cpu00.branchPred.condIncorrect             966                       # Number of conditional branches incorrect
system.cpu00.branchPred.BTBLookups               6717                       # Number of BTB lookups
system.cpu00.branchPred.BTBHits                  3489                       # Number of BTB hits
system.cpu00.branchPred.BTBCorrect                  0                       # Number of correct BTB predictions (this stat may not work properly.
system.cpu00.branchPred.BTBHitPct           51.942832                       # BTB Hit Percentage
system.cpu00.branchPred.usedRAS                   966                       # Number of times the RAS was used to get a target.
system.cpu00.branchPred.RASInCorrect               12                       # Number of incorrect RAS predictions.
system.cpu_voltage_domain.voltage                   1                       # Voltage in Volts
system.cpu_clk_domain.clock                       500                       # Clock period in ticks
system.cpu00.dstage2_mmu.stage2_tlb.walker.walks            0                       # Table walker walks requested
system.cpu00.dstage2_mmu.stage2_tlb.walker.walkRequestOrigin_Requested::Data            0                       # Table walker requests started/completed, data/inst
system.cpu00.dstage2_mmu.stage2_tlb.walker.walkRequestOrigin_Requested::Inst            0                       # Table walker requests started/completed, data/inst
system.cpu00.dstage2_mmu.stage2_tlb.walker.walkRequestOrigin_Requested::total            0                       # Table walker requests started/completed, data/inst
system.cpu00.dstage2_mmu.stage2_tlb.walker.walkRequestOrigin_Completed::Data            0                       # Table walker requests started/completed, data/inst
system.cpu00.dstage2_mmu.stage2_tlb.walker.walkRequestOrigin_Completed::Inst            0                       # Table walker requests started/completed, data/inst
system.cpu00.dstage2_mmu.stage2_tlb.walker.walkRequestOrigin_Completed::total            0                       # Table walker requests started/completed, data/inst
system.cpu00.dstage2_mmu.stage2_tlb.walker.walkRequestOrigin::total            0                       # Table walker requests started/completed, data/inst
system.cpu00.dstage2_mmu.stage2_tlb.inst_hits            0                       # ITB inst hits
system.cpu00.dstage2_mmu.stage2_tlb.inst_misses            0                       # ITB inst misses
system.cpu00.dstage2_mmu.stage2_tlb.read_hits            0                       # DTB read hits
system.cpu00.dstage2_mmu.stage2_tlb.read_misses            0                       # DTB read misses
system.cpu00.dstage2_mmu.stage2_tlb.write_hits            0                       # DTB write hits
system.cpu00.dstage2_mmu.stage2_tlb.write_misses            0                       # DTB write misses
system.cpu00.dstage2_mmu.stage2_tlb.flush_tlb            0                       # Number of times complete TLB was flushed
system.cpu00.dstage2_mmu.stage2_tlb.flush_tlb_mva            0                       # Number of times TLB was flushed by MVA
system.cpu00.dstage2_mmu.stage2_tlb.flush_tlb_mva_asid            0                       # Number of times TLB was flushed by MVA & ASID
system.cpu00.dstage2_mmu.stage2_tlb.flush_tlb_asid            0                       # Number of times TLB was flushed by ASID
system.cpu00.dstage2_mmu.stage2_tlb.flush_entries            0                       # Number of entries that have been flushed from TLB
system.cpu00.dstage2_mmu.stage2_tlb.align_faults            0                       # Number of TLB faults due to alignment restrictions
system.cpu00.dstage2_mmu.stage2_tlb.prefetch_faults            0                       # Number of TLB faults due to prefetch
system.cpu00.dstage2_mmu.stage2_tlb.domain_faults            0                       # Number of TLB faults due to domain restrictions
system.cpu00.dstage2_mmu.stage2_tlb.perms_faults            0                       # Number of TLB faults due to permissions restrictions
system.cpu00.dstage2_mmu.stage2_tlb.read_accesses            0                       # DTB read accesses
system.cpu00.dstage2_mmu.stage2_tlb.write_accesses            0                       # DTB write accesses
system.cpu00.dstage2_mmu.stage2_tlb.inst_accesses            0                       # ITB inst accesses
system.cpu00.dstage2_mmu.stage2_tlb.hits            0                       # DTB hits
system.cpu00.dstage2_mmu.stage2_tlb.misses            0                       # DTB misses
system.cpu00.dstage2_mmu.stage2_tlb.accesses            0                       # DTB accesses
system.cpu00.dtb.walker.walks                       0                       # Table walker walks requested
system.cpu00.dtb.walker.walkRequestOrigin_Requested::Data            0                       # Table walker requests started/completed, data/inst
system.cpu00.dtb.walker.walkRequestOrigin_Requested::Inst            0                       # Table walker requests started/completed, data/inst
system.cpu00.dtb.walker.walkRequestOrigin_Requested::total            0                       # Table walker requests started/completed, data/inst
system.cpu00.dtb.walker.walkRequestOrigin_Completed::Data            0                       # Table walker requests started/completed, data/inst
system.cpu00.dtb.walker.walkRequestOrigin_Completed::Inst            0                       # Table walker requests started/completed, data/inst
system.cpu00.dtb.walker.walkRequestOrigin_Completed::total            0                       # Table walker requests started/completed, data/inst
system.cpu00.dtb.walker.walkRequestOrigin::total            0                       # Table walker requests started/completed, data/inst
system.cpu00.dtb.inst_hits                          0                       # ITB inst hits
system.cpu00.dtb.inst_misses                        0                       # ITB inst misses
system.cpu00.dtb.read_hits                          0                       # DTB read hits
system.cpu00.dtb.read_misses                        0                       # DTB read misses
system.cpu00.dtb.write_hits                         0                       # DTB write hits
system.cpu00.dtb.write_misses                       0                       # DTB write misses
system.cpu00.dtb.flush_tlb                          0                       # Number of times complete TLB was flushed
system.cpu00.dtb.flush_tlb_mva                      0                       # Number of times TLB was flushed by MVA
system.cpu00.dtb.flush_tlb_mva_asid                 0                       # Number of times TLB was flushed by MVA & ASID
system.cpu00.dtb.flush_tlb_asid                     0                       # Number of times TLB was flushed by ASID
system.cpu00.dtb.flush_entries                      0                       # Number of entries that have been flushed from TLB
system.cpu00.dtb.align_faults                       0                       # Number of TLB faults due to alignment restrictions
system.cpu00.dtb.prefetch_faults                    0                       # Number of TLB faults due to prefetch
system.cpu00.dtb.domain_faults                      0                       # Number of TLB faults due to domain restrictions
system.cpu00.dtb.perms_faults                       0                       # Number of TLB faults due to permissions restrictions
system.cpu00.dtb.read_accesses                      0                       # DTB read accesses
system.cpu00.dtb.write_accesses                     0                       # DTB write accesses
system.cpu00.dtb.inst_accesses                      0                       # ITB inst accesses
system.cpu00.dtb.hits                               0                       # DTB hits
system.cpu00.dtb.misses                             0                       # DTB misses
system.cpu00.dtb.accesses                           0                       # DTB accesses
system.cpu00.istage2_mmu.stage2_tlb.walker.walks            0                       # Table walker walks requested
system.cpu00.istage2_mmu.stage2_tlb.walker.walkRequestOrigin_Requested::Data            0                       # Table walker requests started/completed, data/inst
system.cpu00.istage2_mmu.stage2_tlb.walker.walkRequestOrigin_Requested::Inst            0                       # Table walker requests started/completed, data/inst
system.cpu00.istage2_mmu.stage2_tlb.walker.walkRequestOrigin_Requested::total            0                       # Table walker requests started/completed, data/inst
system.cpu00.istage2_mmu.stage2_tlb.walker.walkRequestOrigin_Completed::Data            0                       # Table walker requests started/completed, data/inst
system.cpu00.istage2_mmu.stage2_tlb.walker.walkRequestOrigin_Completed::Inst            0                       # Table walker requests started/completed, data/inst
system.cpu00.istage2_mmu.stage2_tlb.walker.walkRequestOrigin_Completed::total            0                       # Table walker requests started/completed, data/inst
system.cpu00.istage2_mmu.stage2_tlb.walker.walkRequestOrigin::total            0                       # Table walker requests started/completed, data/inst
system.cpu00.istage2_mmu.stage2_tlb.inst_hits            0                       # ITB inst hits
system.cpu00.istage2_mmu.stage2_tlb.inst_misses            0                       # ITB inst misses
system.cpu00.istage2_mmu.stage2_tlb.read_hits            0                       # DTB read hits
system.cpu00.istage2_mmu.stage2_tlb.read_misses            0                       # DTB read misses
system.cpu00.istage2_mmu.stage2_tlb.write_hits            0                       # DTB write hits
system.cpu00.istage2_mmu.stage2_tlb.write_misses            0                       # DTB write misses
system.cpu00.istage2_mmu.stage2_tlb.flush_tlb            0                       # Number of times complete TLB was flushed
system.cpu00.istage2_mmu.stage2_tlb.flush_tlb_mva            0                       # Number of times TLB was flushed by MVA
system.cpu00.istage2_mmu.stage2_tlb.flush_tlb_mva_asid            0                       # Number of times TLB was flushed by MVA & ASID
system.cpu00.istage2_mmu.stage2_tlb.flush_tlb_asid            0                       # Number of times TLB was flushed by ASID
system.cpu00.istage2_mmu.stage2_tlb.flush_entries            0                       # Number of entries that have been flushed from TLB
system.cpu00.istage2_mmu.stage2_tlb.align_faults            0                       # Number of TLB faults due to alignment restrictions
system.cpu00.istage2_mmu.stage2_tlb.prefetch_faults            0                       # Number of TLB faults due to prefetch
system.cpu00.istage2_mmu.stage2_tlb.domain_faults            0                       # Number of TLB faults due to domain restrictions
system.cpu00.istage2_mmu.stage2_tlb.perms_faults            0                       # Number of TLB faults due to permissions restrictions
system.cpu00.istage2_mmu.stage2_tlb.read_accesses            0                       # DTB read accesses
system.cpu00.istage2_mmu.stage2_tlb.write_accesses            0                       # DTB write accesses
system.cpu00.istage2_mmu.stage2_tlb.inst_accesses            0                       # ITB inst accesses
system.cpu00.istage2_mmu.stage2_tlb.hits            0                       # DTB hits
system.cpu00.istage2_mmu.stage2_tlb.misses            0                       # DTB misses
system.cpu00.istage2_mmu.stage2_tlb.accesses            0                       # DTB accesses
system.cpu00.itb.walker.walks                       0                       # Table walker walks requested
system.cpu00.itb.walker.walkRequestOrigin_Requested::Data            0                       # Table walker requests started/completed, data/inst
system.cpu00.itb.walker.walkRequestOrigin_Requested::Inst            0                       # Table walker requests started/completed, data/inst
system.cpu00.itb.walker.walkRequestOrigin_Requested::total            0                       # Table walker requests started/completed, data/inst
system.cpu00.itb.walker.walkRequestOrigin_Completed::Data            0                       # Table walker requests started/completed, data/inst
system.cpu00.itb.walker.walkRequestOrigin_Completed::Inst            0                       # Table walker requests started/completed, data/inst
system.cpu00.itb.walker.walkRequestOrigin_Completed::total            0                       # Table walker requests started/completed, data/inst
system.cpu00.itb.walker.walkRequestOrigin::total            0                       # Table walker requests started/completed, data/inst
system.cpu00.itb.inst_hits                          0                       # ITB inst hits
system.cpu00.itb.inst_misses                        0                       # ITB inst misses
system.cpu00.itb.read_hits                          0                       # DTB read hits
system.cpu00.itb.read_misses                        0                       # DTB read misses
system.cpu00.itb.write_hits                         0                       # DTB write hits
system.cpu00.itb.write_misses                       0                       # DTB write misses
system.cpu00.itb.flush_tlb                          0                       # Number of times complete TLB was flushed
system.cpu00.itb.flush_tlb_mva                      0                       # Number of times TLB was flushed by MVA
system.cpu00.itb.flush_tlb_mva_asid                 0                       # Number of times TLB was flushed by MVA & ASID
system.cpu00.itb.flush_tlb_asid                     0                       # Number of times TLB was flushed by ASID
system.cpu00.itb.flush_entries                      0                       # Number of entries that have been flushed from TLB
system.cpu00.itb.align_faults                       0                       # Number of TLB faults due to alignment restrictions
system.cpu00.itb.prefetch_faults                    0                       # Number of TLB faults due to prefetch
system.cpu00.itb.domain_faults                      0                       # Number of TLB faults due to domain restrictions
system.cpu00.itb.perms_faults                       0                       # Number of TLB faults due to permissions restrictions
system.cpu00.itb.read_accesses                      0                       # DTB read accesses
system.cpu00.itb.write_accesses                     0                       # DTB write accesses
system.cpu00.itb.inst_accesses                      0                       # ITB inst accesses
system.cpu00.itb.hits                               0                       # DTB hits
system.cpu00.itb.misses                             0                       # DTB misses
system.cpu00.itb.accesses                           0                       # DTB accesses
system.cpu00.workload.num_syscalls                760                       # Number of system calls
system.cpu00.numCycles                          81430                       # number of cpu cycles simulated
system.cpu00.numWorkItemsStarted                    0                       # number of work items this cpu started
system.cpu00.numWorkItemsCompleted                  0                       # number of work items this cpu completed
system.cpu00.fetch.icacheStallCycles            18675                       # Number of cycles fetch is stalled on an Icache miss
system.cpu00.fetch.Insts                        48409                       # Number of instructions fetch has processed
system.cpu00.fetch.Branches                      9961                       # Number of branches that fetch encountered
system.cpu00.fetch.predictedBranches             4455                       # Number of branches that fetch has predicted taken
system.cpu00.fetch.Cycles                       25677                       # Number of cycles fetch has run and was not squashing or blocked
system.cpu00.fetch.SquashCycles                  2113                       # Number of cycles fetch has spent squashing
system.cpu00.fetch.MiscStallCycles                  1                       # Number of cycles fetch has spent waiting on interrupts, or bad addresses, or out of MSHRs
system.cpu00.fetch.PendingTrapStallCycles            1                       # Number of stall cycles due to pending traps
system.cpu00.fetch.CacheLines                    5623                       # Number of cache lines fetched
system.cpu00.fetch.IcacheSquashes                 640                       # Number of outstanding Icache misses that were squashed
system.cpu00.fetch.rateDist::samples            45410                       # Number of instructions fetched each cycle (Total)
system.cpu00.fetch.rateDist::mean            1.244990                       # Number of instructions fetched each cycle (Total)
system.cpu00.fetch.rateDist::stdev           2.678816                       # Number of instructions fetched each cycle (Total)
system.cpu00.fetch.rateDist::underflows             0      0.00%      0.00% # Number of instructions fetched each cycle (Total)
system.cpu00.fetch.rateDist::0                  35892     79.04%     79.04% # Number of instructions fetched each cycle (Total)
system.cpu00.fetch.rateDist::1                    715      1.57%     80.61% # Number of instructions fetched each cycle (Total)
system.cpu00.fetch.rateDist::2                    876      1.93%     82.54% # Number of instructions fetched each cycle (Total)
system.cpu00.fetch.rateDist::3                    711      1.57%     84.11% # Number of instructions fetched each cycle (Total)
system.cpu00.fetch.rateDist::4                    508      1.12%     85.23% # Number of instructions fetched each cycle (Total)
system.cpu00.fetch.rateDist::5                    576      1.27%     86.50% # Number of instructions fetched each cycle (Total)
system.cpu00.fetch.rateDist::6                    572      1.26%     87.76% # Number of instructions fetched each cycle (Total)
system.cpu00.fetch.rateDist::7                    889      1.96%     89.71% # Number of instructions fetched each cycle (Total)
system.cpu00.fetch.rateDist::8                   4671     10.29%    100.00% # Number of instructions fetched each cycle (Total)
system.cpu00.fetch.rateDist::overflows              0      0.00%    100.00% # Number of instructions fetched each cycle (Total)
system.cpu00.fetch.rateDist::min_value              0                       # Number of instructions fetched each cycle (Total)
system.cpu00.fetch.rateDist::max_value              8                       # Number of instructions fetched each cycle (Total)
system.cpu00.fetch.rateDist::total              45410                       # Number of instructions fetched each cycle (Total)
system.cpu00.fetch.branchRate                0.122326                       # Number of branch fetches per cycle
system.cpu00.fetch.rate                      0.594486                       # Number of inst fetches per cycle
system.cpu00.decode.IdleCycles                  14661                       # Number of cycles decode is idle
system.cpu00.decode.BlockedCycles               21903                       # Number of cycles decode is blocked
system.cpu00.decode.RunCycles                    7405                       # Number of cycles decode is running
system.cpu00.decode.UnblockCycles                 685                       # Number of cycles decode is unblocking
system.cpu00.decode.SquashCycles                  756                       # Number of cycles decode is squashing
system.cpu00.decode.BranchResolved                987                       # Number of times decode resolved a branch
system.cpu00.decode.BranchMispred                 313                       # Number of times decode detected a branch misprediction
system.cpu00.decode.DecodedInsts                49015                       # Number of instructions handled by decode
system.cpu00.decode.SquashedInsts                1118                       # Number of squashed instructions handled by decode
system.cpu00.rename.SquashCycles                  756                       # Number of cycles rename is squashing
system.cpu00.rename.IdleCycles                  15345                       # Number of cycles rename is idle
system.cpu00.rename.BlockCycles                  2549                       # Number of cycles rename is blocking
system.cpu00.rename.serializeStallCycles        14098                       # count of cycles rename stalled for serializing inst
system.cpu00.rename.RunCycles                    7372                       # Number of cycles rename is running
system.cpu00.rename.UnblockCycles                5290                       # Number of cycles rename is unblocking
system.cpu00.rename.RenamedInsts                47042                       # Number of instructions processed by rename
system.cpu00.rename.ROBFullEvents                   4                       # Number of times rename has blocked due to ROB full
system.cpu00.rename.IQFullEvents                  169                       # Number of times rename has blocked due to IQ full
system.cpu00.rename.LQFullEvents                   58                       # Number of times rename has blocked due to LQ full
system.cpu00.rename.SQFullEvents                 4824                       # Number of times rename has blocked due to SQ full
system.cpu00.rename.RenamedOperands             56623                       # Number of destination operands rename has renamed
system.cpu00.rename.RenameLookups              220128                       # Number of register rename lookups that rename has made
system.cpu00.rename.int_rename_lookups          56831                       # Number of integer rename lookups
system.cpu00.rename.fp_rename_lookups              24                       # Number of floating rename lookups
system.cpu00.rename.CommittedMaps               37611                       # Number of HB maps that are committed
system.cpu00.rename.UndoneMaps                  19012                       # Number of HB maps that are undone due to squashing
system.cpu00.rename.serializingInsts              162                       # count of serializing insts renamed
system.cpu00.rename.tempSerializingInsts          161                       # count of temporary serializing insts renamed
system.cpu00.rename.skidInsts                    3178                       # count of insts added to the skid buffer
system.cpu00.memDep0.insertedLoads               7403                       # Number of loads inserted to the mem dependence unit.
system.cpu00.memDep0.insertedStores              6203                       # Number of stores inserted to the mem dependence unit.
system.cpu00.memDep0.conflictingLoads             652                       # Number of conflicting loads.
system.cpu00.memDep0.conflictingStores            695                       # Number of conflicting stores.
system.cpu00.iq.iqInstsAdded                    43716                       # Number of instructions added to the IQ (excludes non-spec)
system.cpu00.iq.iqNonSpecInstsAdded               302                       # Number of non-speculative instructions added to the IQ
system.cpu00.iq.iqInstsIssued                   38361                       # Number of instructions issued
system.cpu00.iq.iqSquashedInstsIssued              77                       # Number of squashed instructions issued
system.cpu00.iq.iqSquashedInstsExamined         13640                       # Number of squashed instructions iterated over during squash; mainly for profiling
system.cpu00.iq.iqSquashedOperandsExamined        34010                       # Number of squashed operands that are examined and possibly removed from graph
system.cpu00.iq.iqSquashedNonSpecRemoved           74                       # Number of squashed non-spec instructions that were removed
system.cpu00.iq.issued_per_cycle::samples        45410                       # Number of insts issued each cycle
system.cpu00.iq.issued_per_cycle::mean       0.844770                       # Number of insts issued each cycle
system.cpu00.iq.issued_per_cycle::stdev      1.774951                       # Number of insts issued each cycle
system.cpu00.iq.issued_per_cycle::underflows            0      0.00%      0.00% # Number of insts issued each cycle
system.cpu00.iq.issued_per_cycle::0             33666     74.14%     74.14% # Number of insts issued each cycle
system.cpu00.iq.issued_per_cycle::1              3268      7.20%     81.33% # Number of insts issued each cycle
system.cpu00.iq.issued_per_cycle::2              2021      4.45%     85.79% # Number of insts issued each cycle
system.cpu00.iq.issued_per_cycle::3              1646      3.62%     89.41% # Number of insts issued each cycle
system.cpu00.iq.issued_per_cycle::4              1536      3.38%     92.79% # Number of insts issued each cycle
system.cpu00.iq.issued_per_cycle::5              1117      2.46%     95.25% # Number of insts issued each cycle
system.cpu00.iq.issued_per_cycle::6               887      1.95%     97.21% # Number of insts issued each cycle
system.cpu00.iq.issued_per_cycle::7              1090      2.40%     99.61% # Number of insts issued each cycle
system.cpu00.iq.issued_per_cycle::8               179      0.39%    100.00% # Number of insts issued each cycle
system.cpu00.iq.issued_per_cycle::overflows            0      0.00%    100.00% # Number of insts issued each cycle
system.cpu00.iq.issued_per_cycle::min_value            0                       # Number of insts issued each cycle
system.cpu00.iq.issued_per_cycle::max_value            8                       # Number of insts issued each cycle
system.cpu00.iq.issued_per_cycle::total         45410                       # Number of insts issued each cycle
system.cpu00.iq.fu_full::No_OpClass                 0      0.00%      0.00% # attempts to use FU when none available
system.cpu00.iq.fu_full::IntAlu                   647     57.21%     57.21% # attempts to use FU when none available
system.cpu00.iq.fu_full::IntMult                    1      0.09%     57.29% # attempts to use FU when none available
system.cpu00.iq.fu_full::IntDiv                     0      0.00%     57.29% # attempts to use FU when none available
system.cpu00.iq.fu_full::FloatAdd                   0      0.00%     57.29% # attempts to use FU when none available
system.cpu00.iq.fu_full::FloatCmp                   0      0.00%     57.29% # attempts to use FU when none available
system.cpu00.iq.fu_full::FloatCvt                   0      0.00%     57.29% # attempts to use FU when none available
system.cpu00.iq.fu_full::FloatMult                  0      0.00%     57.29% # attempts to use FU when none available
system.cpu00.iq.fu_full::FloatDiv                   0      0.00%     57.29% # attempts to use FU when none available
system.cpu00.iq.fu_full::FloatSqrt                  0      0.00%     57.29% # attempts to use FU when none available
system.cpu00.iq.fu_full::SimdAdd                    0      0.00%     57.29% # attempts to use FU when none available
system.cpu00.iq.fu_full::SimdAddAcc                 0      0.00%     57.29% # attempts to use FU when none available
system.cpu00.iq.fu_full::SimdAlu                    0      0.00%     57.29% # attempts to use FU when none available
system.cpu00.iq.fu_full::SimdCmp                    0      0.00%     57.29% # attempts to use FU when none available
system.cpu00.iq.fu_full::SimdCvt                    0      0.00%     57.29% # attempts to use FU when none available
system.cpu00.iq.fu_full::SimdMisc                   0      0.00%     57.29% # attempts to use FU when none available
system.cpu00.iq.fu_full::SimdMult                   0      0.00%     57.29% # attempts to use FU when none available
system.cpu00.iq.fu_full::SimdMultAcc                0      0.00%     57.29% # attempts to use FU when none available
system.cpu00.iq.fu_full::SimdShift                  0      0.00%     57.29% # attempts to use FU when none available
system.cpu00.iq.fu_full::SimdShiftAcc               0      0.00%     57.29% # attempts to use FU when none available
system.cpu00.iq.fu_full::SimdSqrt                   0      0.00%     57.29% # attempts to use FU when none available
system.cpu00.iq.fu_full::SimdFloatAdd               0      0.00%     57.29% # attempts to use FU when none available
system.cpu00.iq.fu_full::SimdFloatAlu               0      0.00%     57.29% # attempts to use FU when none available
system.cpu00.iq.fu_full::SimdFloatCmp               0      0.00%     57.29% # attempts to use FU when none available
system.cpu00.iq.fu_full::SimdFloatCvt               0      0.00%     57.29% # attempts to use FU when none available
system.cpu00.iq.fu_full::SimdFloatDiv               0      0.00%     57.29% # attempts to use FU when none available
system.cpu00.iq.fu_full::SimdFloatMisc              0      0.00%     57.29% # attempts to use FU when none available
system.cpu00.iq.fu_full::SimdFloatMult              0      0.00%     57.29% # attempts to use FU when none available
system.cpu00.iq.fu_full::SimdFloatMultAcc            0      0.00%     57.29% # attempts to use FU when none available
system.cpu00.iq.fu_full::SimdFloatSqrt              0      0.00%     57.29% # attempts to use FU when none available
system.cpu00.iq.fu_full::MemRead                  222     19.63%     76.92% # attempts to use FU when none available
system.cpu00.iq.fu_full::MemWrite                 261     23.08%    100.00% # attempts to use FU when none available
system.cpu00.iq.fu_full::IprAccess                  0      0.00%    100.00% # attempts to use FU when none available
system.cpu00.iq.fu_full::InstPrefetch               0      0.00%    100.00% # attempts to use FU when none available
system.cpu00.iq.FU_type_0::No_OpClass               0      0.00%      0.00% # Type of FU issued
system.cpu00.iq.FU_type_0::IntAlu               25898     67.51%     67.51% # Type of FU issued
system.cpu00.iq.FU_type_0::IntMult                138      0.36%     67.87% # Type of FU issued
system.cpu00.iq.FU_type_0::IntDiv                   0      0.00%     67.87% # Type of FU issued
system.cpu00.iq.FU_type_0::FloatAdd                 0      0.00%     67.87% # Type of FU issued
[...]
system.membus.pkt_count_system.cpu07.icache.mem_side::system.mem_ctrls.port          104                       # Packet count per connected master and slave (bytes)
system.membus.pkt_count_system.cpu07.dcache.mem_side::system.mem_ctrls.port           69                       # Packet count per connected master and slave (bytes)
system.membus.pkt_count_system.cpu08.icache.mem_side::system.mem_ctrls.port          104                       # Packet count per connected master and slave (bytes)
system.membus.pkt_count_system.cpu08.dcache.mem_side::system.mem_ctrls.port           62                       # Packet count per connected master and slave (bytes)
system.membus.pkt_count_system.cpu09.icache.mem_side::system.mem_ctrls.port          106                       # Packet count per connected master and slave (bytes)
system.membus.pkt_count_system.cpu09.dcache.mem_side::system.mem_ctrls.port           64                       # Packet count per connected master and slave (bytes)
system.membus.pkt_count_system.cpu10.icache.mem_side::system.mem_ctrls.port          104                       # Packet count per connected master and slave (bytes)
system.membus.pkt_count_system.cpu10.dcache.mem_side::system.mem_ctrls.port           66                       # Packet count per connected master and slave (bytes)
system.membus.pkt_count_system.cpu11.icache.mem_side::system.mem_ctrls.port          104                       # Packet count per connected master and slave (bytes)
system.membus.pkt_count_system.cpu11.dcache.mem_side::system.mem_ctrls.port           69                       # Packet count per connected master and slave (bytes)
system.membus.pkt_count_system.cpu12.icache.mem_side::system.mem_ctrls.port          110                       # Packet count per connected master and slave (bytes)
system.membus.pkt_count_system.cpu12.dcache.mem_side::system.mem_ctrls.port           75                       # Packet count per connected master and slave (bytes)
system.membus.pkt_count_system.cpu13.icache.mem_side::system.mem_ctrls.port          104                       # Packet count per connected master and slave (bytes)
system.membus.pkt_count_system.cpu13.dcache.mem_side::system.mem_ctrls.port           70                       # Packet count per connected master and slave (bytes)
system.membus.pkt_count_system.cpu14.icache.mem_side::system.mem_ctrls.port          106                       # Packet count per connected master and slave (bytes)
system.membus.pkt_count_system.cpu14.dcache.mem_side::system.mem_ctrls.port           68                       # Packet count per connected master and slave (bytes)
system.membus.pkt_count_system.cpu15.icache.mem_side::system.mem_ctrls.port          106                       # Packet count per connected master and slave (bytes)
system.membus.pkt_count_system.cpu15.dcache.mem_side::system.mem_ctrls.port           68                       # Packet count per connected master and slave (bytes)
system.membus.pkt_count::total                   4513                       # Packet count per connected master and slave (bytes)
system.membus.pkt_size_system.cpu00.icache.mem_side::system.mem_ctrls.port        38336                       # Cumulative packet size per connected master and slave (bytes)
system.membus.pkt_size_system.cpu00.dcache.mem_side::system.mem_ctrls.port        23104                       # Cumulative packet size per connected master and slave (bytes)
system.membus.pkt_size_system.cpu01.icache.mem_side::system.mem_ctrls.port         3328                       # Cumulative packet size per connected master and slave (bytes)
system.membus.pkt_size_system.cpu01.dcache.mem_side::system.mem_ctrls.port          960                       # Cumulative packet size per connected master and slave (bytes)
system.membus.pkt_size_system.cpu02.icache.mem_side::system.mem_ctrls.port         3520                       # Cumulative packet size per connected master and slave (bytes)
system.membus.pkt_size_system.cpu02.dcache.mem_side::system.mem_ctrls.port         1024                       # Cumulative packet size per connected master and slave (bytes)
system.membus.pkt_size_system.cpu03.icache.mem_side::system.mem_ctrls.port         3392                       # Cumulative packet size per connected master and slave (bytes)
system.membus.pkt_size_system.cpu03.dcache.mem_side::system.mem_ctrls.port         1024                       # Cumulative packet size per connected master and slave (bytes)
system.membus.pkt_size_system.cpu04.icache.mem_side::system.mem_ctrls.port         3264                       # Cumulative packet size per connected master and slave (bytes)
system.membus.pkt_size_system.cpu04.dcache.mem_side::system.mem_ctrls.port          960                       # Cumulative packet size per connected master and slave (bytes)
system.membus.pkt_size_system.cpu05.icache.mem_side::system.mem_ctrls.port         3200                       # Cumulative packet size per connected master and slave (bytes)
system.membus.pkt_size_system.cpu05.dcache.mem_side::system.mem_ctrls.port          960                       # Cumulative packet size per connected master and slave (bytes)
system.membus.pkt_size_system.cpu06.icache.mem_side::system.mem_ctrls.port         3328                       # Cumulative packet size per connected master and slave (bytes)
system.membus.pkt_size_system.cpu06.dcache.mem_side::system.mem_ctrls.port         1024                       # Cumulative packet size per connected master and slave (bytes)
system.membus.pkt_size_system.cpu07.icache.mem_side::system.mem_ctrls.port         3328                       # Cumulative packet size per connected master and slave (bytes)
system.membus.pkt_size_system.cpu07.dcache.mem_side::system.mem_ctrls.port         1024                       # Cumulative packet size per connected master and slave (bytes)
system.membus.pkt_size_system.cpu08.icache.mem_side::system.mem_ctrls.port         3328                       # Cumulative packet size per connected master and slave (bytes)
system.membus.pkt_size_system.cpu08.dcache.mem_side::system.mem_ctrls.port         1024                       # Cumulative packet size per connected master and slave (bytes)
system.membus.pkt_size_system.cpu09.icache.mem_side::system.mem_ctrls.port         3392                       # Cumulative packet size per connected master and slave (bytes)
system.membus.pkt_size_system.cpu09.dcache.mem_side::system.mem_ctrls.port         1024                       # Cumulative packet size per connected master and slave (bytes)
system.membus.pkt_size_system.cpu10.icache.mem_side::system.mem_ctrls.port         3328                       # Cumulative packet size per connected master and slave (bytes)
system.membus.pkt_size_system.cpu10.dcache.mem_side::system.mem_ctrls.port         1024                       # Cumulative packet size per connected master and slave (bytes)
system.membus.pkt_size_system.cpu11.icache.mem_side::system.mem_ctrls.port         3328                       # Cumulative packet size per connected master and slave (bytes)
system.membus.pkt_size_system.cpu11.dcache.mem_side::system.mem_ctrls.port          960                       # Cumulative packet size per connected master and slave (bytes)
system.membus.pkt_size_system.cpu12.icache.mem_side::system.mem_ctrls.port         3520                       # Cumulative packet size per connected master and slave (bytes)
system.membus.pkt_size_system.cpu12.dcache.mem_side::system.mem_ctrls.port         1088                       # Cumulative packet size per connected master and slave (bytes)
system.membus.pkt_size_system.cpu13.icache.mem_side::system.mem_ctrls.port         3328                       # Cumulative packet size per connected master and slave (bytes)
system.membus.pkt_size_system.cpu13.dcache.mem_side::system.mem_ctrls.port          960                       # Cumulative packet size per connected master and slave (bytes)
system.membus.pkt_size_system.cpu14.icache.mem_side::system.mem_ctrls.port         3392                       # Cumulative packet size per connected master and slave (bytes)
system.membus.pkt_size_system.cpu14.dcache.mem_side::system.mem_ctrls.port          960                       # Cumulative packet size per connected master and slave (bytes)
system.membus.pkt_size_system.cpu15.icache.mem_side::system.mem_ctrls.port         3392                       # Cumulative packet size per connected master and slave (bytes)
system.membus.pkt_size_system.cpu15.dcache.mem_side::system.mem_ctrls.port         1024                       # Cumulative packet size per connected master and slave (bytes)
system.membus.pkt_size::total                  126848                       # Cumulative packet size per connected master and slave (bytes)
system.membus.snoops                              544                       # Total snoops (count)
system.membus.snoop_fanout::samples              2544                       # Request fanout histogram
system.membus.snoop_fanout::mean                   31                       # Request fanout histogram
system.membus.snoop_fanout::stdev                   0                       # Request fanout histogram
system.membus.snoop_fanout::underflows              0      0.00%      0.00% # Request fanout histogram
system.membus.snoop_fanout::0                       0      0.00%      0.00% # Request fanout histogram
system.membus.snoop_fanout::1                       0      0.00%      0.00% # Request fanout histogram
system.membus.snoop_fanout::2                       0      0.00%      0.00% # Request fanout histogram
system.membus.snoop_fanout::3                       0      0.00%      0.00% # Request fanout histogram
system.membus.snoop_fanout::4                       0      0.00%      0.00% # Request fanout histogram
system.membus.snoop_fanout::5                       0      0.00%      0.00% # Request fanout histogram
system.membus.snoop_fanout::6                       0      0.00%      0.00% # Request fanout histogram
system.membus.snoop_fanout::7                       0      0.00%      0.00% # Request fanout histogram
system.membus.snoop_fanout::8                       0      0.00%      0.00% # Request fanout histogram
system.membus.snoop_fanout::9                       0      0.00%      0.00% # Request fanout histogram
system.membus.snoop_fanout::10                      0      0.00%      0.00% # Request fanout histogram
system.membus.snoop_fanout::11                      0      0.00%      0.00% # Request fanout histogram
system.membus.snoop_fanout::12                      0      0.00%      0.00% # Request fanout histogram
system.membus.snoop_fanout::13                      0      0.00%      0.00% # Request fanout histogram
system.membus.snoop_fanout::14                      0      0.00%      0.00% # Request fanout histogram
system.membus.snoop_fanout::15                      0      0.00%      0.00% # Request fanout histogram
system.membus.snoop_fanout::16                      0      0.00%      0.00% # Request fanout histogram
system.membus.snoop_fanout::17                      0      0.00%      0.00% # Request fanout histogram
system.membus.snoop_fanout::18                      0      0.00%      0.00% # Request fanout histogram
system.membus.snoop_fanout::19                      0      0.00%      0.00% # Request fanout histogram
system.membus.snoop_fanout::20                      0      0.00%      0.00% # Request fanout histogram
system.membus.snoop_fanout::21                      0      0.00%      0.00% # Request fanout histogram
system.membus.snoop_fanout::22                      0      0.00%      0.00% # Request fanout histogram
system.membus.snoop_fanout::23                      0      0.00%      0.00% # Request fanout histogram
system.membus.snoop_fanout::24                      0      0.00%      0.00% # Request fanout histogram
system.membus.snoop_fanout::25                      0      0.00%      0.00% # Request fanout histogram
system.membus.snoop_fanout::26                      0      0.00%      0.00% # Request fanout histogram
system.membus.snoop_fanout::27                      0      0.00%      0.00% # Request fanout histogram
system.membus.snoop_fanout::28                      0      0.00%      0.00% # Request fanout histogram
system.membus.snoop_fanout::29                      0      0.00%      0.00% # Request fanout histogram
system.membus.snoop_fanout::30                      0      0.00%      0.00% # Request fanout histogram
system.membus.snoop_fanout::31                   2544    100.00%    100.00% # Request fanout histogram
system.membus.snoop_fanout::32                      0      0.00%    100.00% # Request fanout histogram
system.membus.snoop_fanout::overflows               0      0.00%    100.00% # Request fanout histogram
system.membus.snoop_fanout::min_value              31                       # Request fanout histogram
system.membus.snoop_fanout::max_value              31                       # Request fanout histogram
system.membus.snoop_fanout::total                2544                       # Request fanout histogram
system.membus.reqLayer0.occupancy             3066997                       # Layer occupancy (ticks)
system.membus.reqLayer0.utilization               7.5                       # Layer utilization (%)
system.membus.respLayer1.occupancy            3185500                       # Layer occupancy (ticks)
system.membus.respLayer1.utilization              7.8                       # Layer utilization (%)
system.membus.respLayer2.occupancy            1902741                       # Layer occupancy (ticks)
system.membus.respLayer2.utilization              4.7                       # Layer utilization (%)
system.membus.respLayer5.occupancy             280250                       # Layer occupancy (ticks)
system.membus.respLayer5.utilization              0.7                       # Layer utilization (%)
system.membus.respLayer6.occupancy             262741                       # Layer occupancy (ticks)
system.membus.respLayer6.utilization              0.6                       # Layer utilization (%)
system.membus.respLayer9.occupancy             296750                       # Layer occupancy (ticks)
system.membus.respLayer9.utilization              0.7                       # Layer utilization (%)
system.membus.respLayer10.occupancy            310975                       # Layer occupancy (ticks)
system.membus.respLayer10.utilization             0.8                       # Layer utilization (%)
system.membus.respLayer13.occupancy            286500                       # Layer occupancy (ticks)
system.membus.respLayer13.utilization             0.7                       # Layer utilization (%)
system.membus.respLayer14.occupancy            245234                       # Layer occupancy (ticks)
system.membus.respLayer14.utilization             0.6                       # Layer utilization (%)
system.membus.respLayer17.occupancy            275500                       # Layer occupancy (ticks)
system.membus.respLayer17.utilization             0.7                       # Layer utilization (%)
system.membus.respLayer18.occupancy            206746                       # Layer occupancy (ticks)
system.membus.respLayer18.utilization             0.5                       # Layer utilization (%)
system.membus.respLayer21.occupancy            269750                       # Layer occupancy (ticks)
system.membus.respLayer21.utilization             0.7                       # Layer utilization (%)
system.membus.respLayer22.occupancy            245747                       # Layer occupancy (ticks)
system.membus.respLayer22.utilization             0.6                       # Layer utilization (%)
system.membus.respLayer25.occupancy            281250                       # Layer occupancy (ticks)
system.membus.respLayer25.utilization             0.7                       # Layer utilization (%)
system.membus.respLayer26.occupancy            216499                       # Layer occupancy (ticks)
system.membus.respLayer26.utilization             0.5                       # Layer utilization (%)
system.membus.respLayer29.occupancy            281250                       # Layer occupancy (ticks)
system.membus.respLayer29.utilization             0.7                       # Layer utilization (%)
system.membus.respLayer30.occupancy            259990                       # Layer occupancy (ticks)
system.membus.respLayer30.utilization             0.6                       # Layer utilization (%)
system.membus.respLayer33.occupancy            279250                       # Layer occupancy (ticks)
system.membus.respLayer33.utilization             0.7                       # Layer utilization (%)
system.membus.respLayer34.occupancy            224732                       # Layer occupancy (ticks)
system.membus.respLayer34.utilization             0.6                       # Layer utilization (%)
system.membus.respLayer37.occupancy            289250                       # Layer occupancy (ticks)
system.membus.respLayer37.utilization             0.7                       # Layer utilization (%)
system.membus.respLayer38.occupancy            232736                       # Layer occupancy (ticks)
system.membus.respLayer38.utilization             0.6                       # Layer utilization (%)
system.membus.respLayer41.occupancy            279000                       # Layer occupancy (ticks)
system.membus.respLayer41.utilization             0.7                       # Layer utilization (%)
system.membus.respLayer42.occupancy            245242                       # Layer occupancy (ticks)
system.membus.respLayer42.utilization             0.6                       # Layer utilization (%)
system.membus.respLayer45.occupancy            279500                       # Layer occupancy (ticks)
system.membus.respLayer45.utilization             0.7                       # Layer utilization (%)
system.membus.respLayer46.occupancy            261740                       # Layer occupancy (ticks)
system.membus.respLayer46.utilization             0.6                       # Layer utilization (%)
system.membus.respLayer49.occupancy            295750                       # Layer occupancy (ticks)
system.membus.respLayer49.utilization             0.7                       # Layer utilization (%)
system.membus.respLayer50.occupancy            285984                       # Layer occupancy (ticks)
system.membus.respLayer50.utilization             0.7                       # Layer utilization (%)
system.membus.respLayer53.occupancy            281250                       # Layer occupancy (ticks)
system.membus.respLayer53.utilization             0.7                       # Layer utilization (%)
system.membus.respLayer54.occupancy            272474                       # Layer occupancy (ticks)
system.membus.respLayer54.utilization             0.7                       # Layer utilization (%)
system.membus.respLayer57.occupancy            286750                       # Layer occupancy (ticks)
system.membus.respLayer57.utilization             0.7                       # Layer utilization (%)
system.membus.respLayer58.occupancy            260732                       # Layer occupancy (ticks)
system.membus.respLayer58.utilization             0.6                       # Layer utilization (%)
system.membus.respLayer61.occupancy            286250                       # Layer occupancy (ticks)
system.membus.respLayer61.utilization             0.7                       # Layer utilization (%)
system.membus.respLayer62.occupancy            243496                       # Layer occupancy (ticks)
system.membus.respLayer62.utilization             0.6                       # Layer utilization (%)

---------- End Simulation Statistics   ----------
