
---------- Begin Simulation Statistics ----------
sim_seconds                                  0.000036                       # Number of seconds simulated
sim_ticks                                    36003000                       # Number of ticks simulated
final_tick                                   36003000                       # Number of ticks from beginning of simulation (restored from checkpoints and never reset)
sim_freq                                 1000000000000                       # Frequency of simulated ticks
host_inst_rate                                  91517                       # Simulator instruction rate (inst/s)
host_op_rate                                   106351                       # Simulator op (including micro ops) rate (op/s)
host_tick_rate                              130444680                       # Simulator tick rate (ticks/s)
host_mem_usage                                 646672                       # Number of bytes of host memory used
host_seconds                                     0.28                       # Real time elapsed on the host
sim_insts                                       25255                       # Number of instructions simulated
sim_ops                                         29351                       # Number of ops (including micro ops) simulated
system.voltage_domain.voltage                       1                       # Voltage in Volts
system.clk_domain.clock                          1000                       # Clock period in ticks
system.mem_ctrls.bytes_read::cpu.inst           37312                       # Number of bytes read from this memory
system.mem_ctrls.bytes_read::cpu.data           19840                       # Number of bytes read from this memory
system.mem_ctrls.bytes_read::total              57152                       # Number of bytes read from this memory
system.mem_ctrls.bytes_inst_read::cpu.inst        37312                       # Number of instructions bytes read from this memory
system.mem_ctrls.bytes_inst_read::total         37312                       # Number of instructions bytes read from this memory
system.mem_ctrls.bytes_written::writebacks          320                       # Number of bytes written to this memory
system.mem_ctrls.bytes_written::total             320                       # Number of bytes written to this memory
system.mem_ctrls.num_reads::cpu.inst              583                       # Number of read requests responded to by this memory
system.mem_ctrls.num_reads::cpu.data              310                       # Number of read requests responded to by this memory
system.mem_ctrls.num_reads::total                 893                       # Number of read requests responded to by this memory
system.mem_ctrls.num_writes::writebacks             5                       # Number of write requests responded to by this memory
system.mem_ctrls.num_writes::total                  5                       # Number of write requests responded to by this memory
system.mem_ctrls.bw_read::cpu.inst         1036358081                       # Total read bandwidth from this memory (bytes/s)
system.mem_ctrls.bw_read::cpu.data          551065189                       # Total read bandwidth from this memory (bytes/s)
system.mem_ctrls.bw_read::total            1587423270                       # Total read bandwidth from this memory (bytes/s)
system.mem_ctrls.bw_inst_read::cpu.inst    1036358081                       # Instruction read bandwidth from this memory (bytes/s)
system.mem_ctrls.bw_inst_read::total       1036358081                       # Instruction read bandwidth from this memory (bytes/s)
system.mem_ctrls.bw_write::writebacks         8888148                       # Write bandwidth from this memory (bytes/s)
system.mem_ctrls.bw_write::total              8888148                       # Write bandwidth from this memory (bytes/s)
system.mem_ctrls.bw_total::writebacks         8888148                       # Total bandwidth to/from this memory (bytes/s)
system.mem_ctrls.bw_total::cpu.inst        1036358081                       # Total bandwidth to/from this memory (bytes/s)
system.mem_ctrls.bw_total::cpu.data         551065189                       # Total bandwidth to/from this memory (bytes/s)
system.mem_ctrls.bw_total::total           1596311418                       # Total bandwidth to/from this memory (bytes/s)
system.mem_ctrls.readReqs                         894                       # Number of read requests accepted
system.mem_ctrls.writeReqs                          5                       # Number of write requests accepted
system.mem_ctrls.readBursts                       894                       # Number of DRAM read bursts, including those serviced by the write queue
system.mem_ctrls.writeBursts                        5                       # Number of DRAM write bursts, including those merged in the write queue
system.mem_ctrls.bytesReadDRAM                  57024                       # Total number of bytes read from DRAM
system.mem_ctrls.bytesReadWrQ                     192                       # Total number of bytes read from write queue
system.mem_ctrls.bytesWritten                       0                       # Total number of bytes written to DRAM
system.mem_ctrls.bytesReadSys                   57216                       # Total read bytes from the system interface side
system.mem_ctrls.bytesWrittenSys                  320                       # Total written bytes from the system interface side
system.mem_ctrls.servicedByWrQ                      3                       # Number of DRAM read bursts serviced by the write queue
system.mem_ctrls.mergedWrBursts                     1                       # Number of DRAM write bursts merged with an existing one
system.mem_ctrls.neitherReadNorWriteReqs            0                       # Number of requests that are neither read nor write
system.mem_ctrls.perBankRdBursts::0               174                       # Per bank write bursts
system.mem_ctrls.perBankRdBursts::1               115                       # Per bank write bursts
system.mem_ctrls.perBankRdBursts::2               130                       # Per bank write bursts
system.mem_ctrls.perBankRdBursts::3               122                       # Per bank write bursts
system.mem_ctrls.perBankRdBursts::4                22                       # Per bank write bursts
system.mem_ctrls.perBankRdBursts::5                18                       # Per bank write bursts
system.mem_ctrls.perBankRdBursts::6                94                       # Per bank write bursts
system.mem_ctrls.perBankRdBursts::7                33                       # Per bank write bursts
system.mem_ctrls.perBankRdBursts::8                14                       # Per bank write bursts
system.mem_ctrls.perBankRdBursts::9                10                       # Per bank write bursts
system.mem_ctrls.perBankRdBursts::10                0                       # Per bank write bursts
system.mem_ctrls.perBankRdBursts::11               14                       # Per bank write bursts
system.mem_ctrls.perBankRdBursts::12                9                       # Per bank write bursts
system.mem_ctrls.perBankRdBursts::13               38                       # Per bank write bursts
system.mem_ctrls.perBankRdBursts::14               40                       # Per bank write bursts
system.mem_ctrls.perBankRdBursts::15               58                       # Per bank write bursts
system.mem_ctrls.perBankWrBursts::0                 0                       # Per bank write bursts
system.mem_ctrls.perBankWrBursts::1                 0                       # Per bank write bursts
system.mem_ctrls.perBankWrBursts::2                 0                       # Per bank write bursts
system.mem_ctrls.perBankWrBursts::3                 0                       # Per bank write bursts
system.mem_ctrls.perBankWrBursts::4                 0                       # Per bank write bursts
system.mem_ctrls.perBankWrBursts::5                 0                       # Per bank write bursts
system.mem_ctrls.perBankWrBursts::6                 0                       # Per bank write bursts
system.mem_ctrls.perBankWrBursts::7                 0                       # Per bank write bursts
system.mem_ctrls.perBankWrBursts::8                 0                       # Per bank write bursts
system.mem_ctrls.perBankWrBursts::9                 0                       # Per bank write bursts
system.mem_ctrls.perBankWrBursts::10                0                       # Per bank write bursts
system.mem_ctrls.perBankWrBursts::11                0                       # Per bank write bursts
system.mem_ctrls.perBankWrBursts::12                0                       # Per bank write bursts
system.mem_ctrls.perBankWrBursts::13                0                       # Per bank write bursts
system.mem_ctrls.perBankWrBursts::14                0                       # Per bank write bursts
system.mem_ctrls.perBankWrBursts::15                0                       # Per bank write bursts
system.mem_ctrls.numRdRetry                         0                       # Number of times read queue was full causing retry
system.mem_ctrls.numWrRetry                         0                       # Number of times write queue was full causing retry
system.mem_ctrls.totGap                      35994500                       # Total gap between requests
system.mem_ctrls.readPktSize::0                     0                       # Read request sizes (log2)
system.mem_ctrls.readPktSize::1                     0                       # Read request sizes (log2)
system.mem_ctrls.readPktSize::2                     0                       # Read request sizes (log2)
system.mem_ctrls.readPktSize::3                     0                       # Read request sizes (log2)
system.mem_ctrls.readPktSize::4                     0                       # Read request sizes (log2)
system.mem_ctrls.readPktSize::5                     0                       # Read request sizes (log2)
system.mem_ctrls.readPktSize::6                   894                       # Read request sizes (log2)
system.mem_ctrls.writePktSize::0                    0                       # Write request sizes (log2)
system.mem_ctrls.writePktSize::1                    0                       # Write request sizes (log2)
system.mem_ctrls.writePktSize::2                    0                       # Write request sizes (log2)
system.mem_ctrls.writePktSize::3                    0                       # Write request sizes (log2)
system.mem_ctrls.writePktSize::4                    0                       # Write request sizes (log2)
system.mem_ctrls.writePktSize::5                    0                       # Write request sizes (log2)
system.mem_ctrls.writePktSize::6                    5                       # Write request sizes (log2)
system.mem_ctrls.rdQLenPdf::0                     485                       # What read queue length does an incoming req see
system.mem_ctrls.rdQLenPdf::1                     291                       # What read queue length does an incoming req see
system.mem_ctrls.rdQLenPdf::2                      79                       # What read queue length does an incoming req see
system.mem_ctrls.rdQLenPdf::3                      25                       # What read queue length does an incoming req see
system.mem_ctrls.rdQLenPdf::4                       9                       # What read queue length does an incoming req see
system.mem_ctrls.rdQLenPdf::5                       2                       # What read queue length does an incoming req see
system.mem_ctrls.rdQLenPdf::6                       0                       # What read queue length does an incoming req see
system.mem_ctrls.rdQLenPdf::7                       0                       # What read queue length does an incoming req see
system.mem_ctrls.rdQLenPdf::8                       0                       # What read queue length does an incoming req see
system.mem_ctrls.rdQLenPdf::9                       0                       # What read queue length does an incoming req see
system.mem_ctrls.rdQLenPdf::10                      0                       # What read queue length does an incoming req see
system.mem_ctrls.rdQLenPdf::11                      0                       # What read queue length does an incoming req see
system.mem_ctrls.rdQLenPdf::12                      0                       # What read queue length does an incoming req see
system.mem_ctrls.rdQLenPdf::13                      0                       # What read queue length does an incoming req see
system.mem_ctrls.rdQLenPdf::14                      0                       # What read queue length does an incoming req see
system.mem_ctrls.rdQLenPdf::15                      0                       # What read queue length does an incoming req see
system.mem_ctrls.rdQLenPdf::16                      0                       # What read queue length does an incoming req see
system.mem_ctrls.rdQLenPdf::17                      0                       # What read queue length does an incoming req see
system.mem_ctrls.rdQLenPdf::18                      0                       # What read queue length does an incoming req see
system.mem_ctrls.rdQLenPdf::19                      0                       # What read queue length does an incoming req see
system.mem_ctrls.rdQLenPdf::20                      0                       # What read queue length does an incoming req see
system.mem_ctrls.rdQLenPdf::21                      0                       # What read queue length does an incoming req see
system.mem_ctrls.rdQLenPdf::22                      0                       # What read queue length does an incoming req see
system.mem_ctrls.rdQLenPdf::23                      0                       # What read queue length does an incoming req see
system.mem_ctrls.rdQLenPdf::24                      0                       # What read queue length does an incoming req see
system.mem_ctrls.rdQLenPdf::25                      0                       # What read queue length does an incoming req see
system.mem_ctrls.rdQLenPdf::26                      0                       # What read queue length does an incoming req see
system.mem_ctrls.rdQLenPdf::27                      0                       # What read queue length does an incoming req see
system.mem_ctrls.rdQLenPdf::28                      0                       # What read queue length does an incoming req see
system.mem_ctrls.rdQLenPdf::29                      0                       # What read queue length does an incoming req see
system.mem_ctrls.rdQLenPdf::30                      0                       # What read queue length does an incoming req see
system.mem_ctrls.rdQLenPdf::31                      0                       # What read queue length does an incoming req see
system.mem_ctrls.wrQLenPdf::0                       1                       # What write queue length does an incoming req see
system.mem_ctrls.wrQLenPdf::1                       1                       # What write queue length does an incoming req see
system.mem_ctrls.wrQLenPdf::2                       1                       # What write queue length does an incoming req see
system.mem_ctrls.wrQLenPdf::3                       1                       # What write queue length does an incoming req see
system.mem_ctrls.wrQLenPdf::4                       0                       # What write queue length does an incoming req see
system.mem_ctrls.wrQLenPdf::5                       0                       # What write queue length does an incoming req see
system.mem_ctrls.wrQLenPdf::6                       0                       # What write queue length does an incoming req see
system.mem_ctrls.wrQLenPdf::7                       0                       # What write queue length does an incoming req see
system.mem_ctrls.wrQLenPdf::8                       0                       # What write queue length does an incoming req see
system.mem_ctrls.wrQLenPdf::9                       0                       # What write queue length does an incoming req see
system.mem_ctrls.wrQLenPdf::10                      0                       # What write queue length does an incoming req see
system.mem_ctrls.wrQLenPdf::11                      0                       # What write queue length does an incoming req see
system.mem_ctrls.wrQLenPdf::12                      0                       # What write queue length does an incoming req see
system.mem_ctrls.wrQLenPdf::13                      0                       # What write queue length does an incoming req see
system.mem_ctrls.wrQLenPdf::14                      0                       # What write queue length does an incoming req see
system.mem_ctrls.wrQLenPdf::15                      0                       # What write queue length does an incoming req see
system.mem_ctrls.wrQLenPdf::16                      0                       # What write queue length does an incoming req see
system.mem_ctrls.wrQLenPdf::17                      0                       # What write queue length does an incoming req see
system.mem_ctrls.wrQLenPdf::18                      0                       # What write queue length does an incoming req see
system.mem_ctrls.wrQLenPdf::19                      0                       # What write queue length does an incoming req see
system.mem_ctrls.wrQLenPdf::20                      0                       # What write queue length does an incoming req see
system.mem_ctrls.wrQLenPdf::21                      0                       # What write queue length does an incoming req see
system.mem_ctrls.wrQLenPdf::22                      0                       # What write queue length does an incoming req see
system.mem_ctrls.wrQLenPdf::23                      0                       # What write queue length does an incoming req see
system.mem_ctrls.wrQLenPdf::24                      0                       # What write queue length does an incoming req see
system.mem_ctrls.wrQLenPdf::25                      0                       # What write queue length does an incoming req see
system.mem_ctrls.wrQLenPdf::26                      0                       # What write queue length does an incoming req see
system.mem_ctrls.wrQLenPdf::27                      0                       # What write queue length does an incoming req see
system.mem_ctrls.wrQLenPdf::28                      0                       # What write queue length does an incoming req see
system.mem_ctrls.wrQLenPdf::29                      0                       # What write queue length does an incoming req see
system.mem_ctrls.wrQLenPdf::30                      0                       # What write queue length does an incoming req see
system.mem_ctrls.wrQLenPdf::31                      0                       # What write queue length does an incoming req see
system.mem_ctrls.wrQLenPdf::32                      0                       # What write queue length does an incoming req see
system.mem_ctrls.wrQLenPdf::33                      0                       # What write queue length does an incoming req see
system.mem_ctrls.wrQLenPdf::34                      0                       # What write queue length does an incoming req see
system.mem_ctrls.wrQLenPdf::35                      0                       # What write queue length does an incoming req see
system.mem_ctrls.wrQLenPdf::36                      0                       # What write queue length does an incoming req see
system.mem_ctrls.wrQLenPdf::37                      0                       # What write queue length does an incoming req see
system.mem_ctrls.wrQLenPdf::38                      0                       # What write queue length does an incoming req see
system.mem_ctrls.wrQLenPdf::39                      0                       # What write queue length does an incoming req see
system.mem_ctrls.wrQLenPdf::40                      0                       # What write queue length does an incoming req see
system.mem_ctrls.wrQLenPdf::41                      0                       # What write queue length does an incoming req see
system.mem_ctrls.wrQLenPdf::42                      0                       # What write queue length does an incoming req see
system.mem_ctrls.wrQLenPdf::43                      0                       # What write queue length does an incoming req see
system.mem_ctrls.wrQLenPdf::44                      0                       # What write queue length does an incoming req see
system.mem_ctrls.wrQLenPdf::45                      0                       # What write queue length does an incoming req see
system.mem_ctrls.wrQLenPdf::46                      0                       # What write queue length does an incoming req see
system.mem_ctrls.wrQLenPdf::47                      0                       # What write queue length does an incoming req see
system.mem_ctrls.wrQLenPdf::48                      0                       # What write queue length does an incoming req see
system.mem_ctrls.wrQLenPdf::49                      0                       # What write queue length does an incoming req see
system.mem_ctrls.wrQLenPdf::50                      0                       # What write queue length does an incoming req see
system.mem_ctrls.wrQLenPdf::51                      0                       # What write queue length does an incoming req see
system.mem_ctrls.wrQLenPdf::52                      0                       # What write queue length does an incoming req see
system.mem_ctrls.wrQLenPdf::53                      0                       # What write queue length does an incoming req see
system.mem_ctrls.wrQLenPdf::54                      0                       # What write queue length does an incoming req see
system.mem_ctrls.wrQLenPdf::55                      0                       # What write queue length does an incoming req see
system.mem_ctrls.wrQLenPdf::56                      0                       # What write queue length does an incoming req see
system.mem_ctrls.wrQLenPdf::57                      0                       # What write queue length does an incoming req see
system.mem_ctrls.wrQLenPdf::58                      0                       # What write queue length does an incoming req see
system.mem_ctrls.wrQLenPdf::59                      0                       # What write queue length does an incoming req see
system.mem_ctrls.wrQLenPdf::60                      0                       # What write queue length does an incoming req see
system.mem_ctrls.wrQLenPdf::61                      0                       # What write queue length does an incoming req see
system.mem_ctrls.wrQLenPdf::62                      0                       # What write queue length does an incoming req see
system.mem_ctrls.wrQLenPdf::63                      0                       # What write queue length does an incoming req see
system.mem_ctrls.bytesPerActivate::samples          164                       # Bytes accessed per row activation
system.mem_ctrls.bytesPerActivate::mean    331.317073                       # Bytes accessed per row activation
system.mem_ctrls.bytesPerActivate::gmean   209.265688                       # Bytes accessed per row activation
system.mem_ctrls.bytesPerActivate::stdev   312.405466                       # Bytes accessed per row activation
system.mem_ctrls.bytesPerActivate::0-127           48     29.27%     29.27% # Bytes accessed per row activation
system.mem_ctrls.bytesPerActivate::128-255           42     25.61%     54.88% # Bytes accessed per row activation
system.mem_ctrls.bytesPerActivate::256-383           18     10.98%     65.85% # Bytes accessed per row activation
system.mem_ctrls.bytesPerActivate::384-511           12      7.32%     73.17% # Bytes accessed per row activation
system.mem_ctrls.bytesPerActivate::512-639           11      6.71%     79.88% # Bytes accessed per row activation
system.mem_ctrls.bytesPerActivate::640-767           10      6.10%     85.98% # Bytes accessed per row activation
system.mem_ctrls.bytesPerActivate::768-895            4      2.44%     88.41% # Bytes accessed per row activation
system.mem_ctrls.bytesPerActivate::896-1023            5      3.05%     91.46% # Bytes accessed per row activation
system.mem_ctrls.bytesPerActivate::1024-1151           14      8.54%    100.00% # Bytes accessed per row activation
system.mem_ctrls.bytesPerActivate::total          164                       # Bytes accessed per row activation
system.mem_ctrls.totQLat                      6788250                       # Total ticks spent queuing
system.mem_ctrls.totMemAccLat                23494500                       # Total ticks spent from burst creation until serviced by the DRAM
system.mem_ctrls.totBusLat                    4455000                       # Total ticks spent in databus transfers
system.mem_ctrls.avgQLat                      7618.69                       # Average queueing delay per DRAM burst
system.mem_ctrls.avgBusLat                    5000.00                       # Average bus latency per DRAM burst
system.mem_ctrls.avgMemAccLat                26368.69                       # Average memory access latency per DRAM burst
system.mem_ctrls.avgRdBW                      1583.87                       # Average DRAM read bandwidth in MiByte/s
system.mem_ctrls.avgWrBW                         0.00                       # Average achieved write bandwidth in MiByte/s
system.mem_ctrls.avgRdBWSys                   1589.20                       # Average system read bandwidth in MiByte/s
system.mem_ctrls.avgWrBWSys                      8.89                       # Average system write bandwidth in MiByte/s
system.mem_ctrls.peakBW                      12800.00                       # Theoretical peak bandwidth in MiByte/s
system.mem_ctrls.busUtil                        12.37                       # Data bus utilization in percentage
system.mem_ctrls.busUtilRead                    12.37                       # Data bus utilization in percentage for reads
system.mem_ctrls.busUtilWrite                    0.00                       # Data bus utilization in percentage for writes
system.mem_ctrls.avgRdQLen                       1.66                       # Average read queue length when enqueuing
system.mem_ctrls.avgWrQLen                       0.98                       # Average write queue length when enqueuing
system.mem_ctrls.readRowHits                      715                       # Number of row buffer hits during reads
system.mem_ctrls.writeRowHits                       0                       # Number of row buffer hits during writes
system.mem_ctrls.readRowHitRate                 80.25                       # Row buffer hit rate for reads
system.mem_ctrls.writeRowHitRate                 0.00                       # Row buffer hit rate for writes
system.mem_ctrls.avgGap                      40038.38                       # Average gap between requests
system.mem_ctrls.pageHitRate                    79.89                       # Row buffer hit rate, read and write combined
system.mem_ctrls_0.actEnergy                   937440                       # Energy for activate commands per rank (pJ)
system.mem_ctrls_0.preEnergy                   511500                       # Energy for precharge commands per rank (pJ)
system.mem_ctrls_0.readEnergy                 4976400                       # Energy for read commands per rank (pJ)
system.mem_ctrls_0.writeEnergy                      0                       # Energy for write commands per rank (pJ)
system.mem_ctrls_0.refreshEnergy              2034240                       # Energy for refresh commands per rank (pJ)
system.mem_ctrls_0.actBackEnergy             21404925                       # Energy for active background per rank (pJ)
system.mem_ctrls_0.preBackEnergy                66750                       # Energy for precharge background per rank (pJ)
system.mem_ctrls_0.totalEnergy               29931255                       # Total energy per rank (pJ)
system.mem_ctrls_0.averagePower            953.072918                       # Core power per rank (mW)
system.mem_ctrls_0.memoryStateTime::IDLE       474750                       # Time in different power states
system.mem_ctrls_0.memoryStateTime::REF       1040000                       # Time in different power states
system.mem_ctrls_0.memoryStateTime::PRE_PDN            0                       # Time in different power states
system.mem_ctrls_0.memoryStateTime::ACT      30363750                       # Time in different power states
system.mem_ctrls_0.memoryStateTime::ACT_PDN            0                       # Time in different power states
system.mem_ctrls_1.actEnergy                   189000                       # Energy for activate commands per rank (pJ)
system.mem_ctrls_1.preEnergy                   103125                       # Energy for precharge commands per rank (pJ)
system.mem_ctrls_1.readEnergy                 1084200                       # Energy for read commands per rank (pJ)
system.mem_ctrls_1.writeEnergy                      0                       # Energy for write commands per rank (pJ)
system.mem_ctrls_1.refreshEnergy              2034240                       # Energy for refresh commands per rank (pJ)
system.mem_ctrls_1.actBackEnergy             20685015                       # Energy for active background per rank (pJ)
system.mem_ctrls_1.preBackEnergy               698250                       # Energy for precharge background per rank (pJ)
system.mem_ctrls_1.totalEnergy               24793830                       # Total energy per rank (pJ)
system.mem_ctrls_1.averagePower            789.486706                       # Core power per rank (mW)
system.mem_ctrls_1.memoryStateTime::IDLE      1983000                       # Time in different power states
system.mem_ctrls_1.memoryStateTime::REF       1040000                       # Time in different power states
system.mem_ctrls_1.memoryStateTime::PRE_PDN            0                       # Time in different power states
system.mem_ctrls_1.memoryStateTime::ACT      29312500                       # Time in different power states
system.mem_ctrls_1.memoryStateTime::ACT_PDN            0                       # Time in different power states
system.cpu.branchPred.lookups                    8634                       # Number of BP lookups
system.cpu.branchPred.condPredicted              6490                       # Number of conditional branches predicted
system.cpu.branchPred.condIncorrect               899                       # Number of conditional branches incorrect
system.cpu.branchPred.BTBLookups                 6530                       # Number of BTB lookups
system.cpu.branchPred.BTBHits                    3078                       # Number of BTB hits
system.cpu.branchPred.BTBCorrect                    0                       # Number of correct BTB predictions (this stat may not work properly.
system.cpu.branchPred.BTBHitPct             47.136294                       # BTB Hit Percentage
system.cpu.branchPred.usedRAS                     799                       # Number of times the RAS was used to get a target.
system.cpu.branchPred.RASInCorrect                 13                       # Number of incorrect RAS predictions.
system.cpu_voltage_domain.voltage                   1                       # Voltage in Volts
system.cpu_clk_domain.clock                       500                       # Clock period in ticks
system.cpu.dstage2_mmu.stage2_tlb.walker.walks            0                       # Table walker walks requested
system.cpu.dstage2_mmu.stage2_tlb.walker.walkRequestOrigin_Requested::Data            0                       # Table walker requests started/completed, data/inst
system.cpu.dstage2_mmu.stage2_tlb.walker.walkRequestOrigin_Requested::Inst            0                       # Table walker requests started/completed, data/inst
system.cpu.dstage2_mmu.stage2_tlb.walker.walkRequestOrigin_Requested::total            0                       # Table walker requests started/completed, data/inst
system.cpu.dstage2_mmu.stage2_tlb.walker.walkRequestOrigin_Completed::Data            0                       # Table walker requests started/completed, data/inst
system.cpu.dstage2_mmu.stage2_tlb.walker.walkRequestOrigin_Completed::Inst            0                       # Table walker requests started/completed, data/inst
system.cpu.dstage2_mmu.stage2_tlb.walker.walkRequestOrigin_Completed::total            0                       # Table walker requests started/completed, data/inst
system.cpu.dstage2_mmu.stage2_tlb.walker.walkRequestOrigin::total            0                       # Table walker requests started/completed, data/inst
system.cpu.dstage2_mmu.stage2_tlb.inst_hits            0                       # ITB inst hits
system.cpu.dstage2_mmu.stage2_tlb.inst_misses            0                       # ITB inst misses
system.cpu.dstage2_mmu.stage2_tlb.read_hits            0                       # DTB read hits
system.cpu.dstage2_mmu.stage2_tlb.read_misses            0                       # DTB read misses
system.cpu.dstage2_mmu.stage2_tlb.write_hits            0                       # DTB write hits
system.cpu.dstage2_mmu.stage2_tlb.write_misses            0                       # DTB write misses
system.cpu.dstage2_mmu.stage2_tlb.flush_tlb            0                       # Number of times complete TLB was flushed
system.cpu.dstage2_mmu.stage2_tlb.flush_tlb_mva            0                       # Number of times TLB was flushed by MVA
system.cpu.dstage2_mmu.stage2_tlb.flush_tlb_mva_asid            0                       # Number of times TLB was flushed by MVA & ASID
system.cpu.dstage2_mmu.stage2_tlb.flush_tlb_asid            0                       # Number of times TLB was flushed by ASID
system.cpu.dstage2_mmu.stage2_tlb.flush_entries            0                       # Number of entries that have been flushed from TLB
system.cpu.dstage2_mmu.stage2_tlb.align_faults            0                       # Number of TLB faults due to alignment restrictions
system.cpu.dstage2_mmu.stage2_tlb.prefetch_faults            0                       # Number of TLB faults due to prefetch
system.cpu.dstage2_mmu.stage2_tlb.domain_faults            0                       # Number of TLB faults due to domain restrictions
system.cpu.dstage2_mmu.stage2_tlb.perms_faults            0                       # Number of TLB faults due to permissions restrictions
system.cpu.dstage2_mmu.stage2_tlb.read_accesses            0                       # DTB read accesses
system.cpu.dstage2_mmu.stage2_tlb.write_accesses            0                       # DTB write accesses
system.cpu.dstage2_mmu.stage2_tlb.inst_accesses            0                       # ITB inst accesses
system.cpu.dstage2_mmu.stage2_tlb.hits              0                       # DTB hits
system.cpu.dstage2_mmu.stage2_tlb.misses            0                       # DTB misses
system.cpu.dstage2_mmu.stage2_tlb.accesses            0                       # DTB accesses
system.cpu.dtb.walker.walks                         0                       # Table walker walks requested
system.cpu.dtb.walker.walkRequestOrigin_Requested::Data            0                       # Table walker requests started/completed, data/inst
system.cpu.dtb.walker.walkRequestOrigin_Requested::Inst            0                       # Table walker requests started/completed, data/inst
system.cpu.dtb.walker.walkRequestOrigin_Requested::total            0                       # Table walker requests started/completed, data/inst
system.cpu.dtb.walker.walkRequestOrigin_Completed::Data            0                       # Table walker requests started/completed, data/inst
system.cpu.dtb.walker.walkRequestOrigin_Completed::Inst            0                       # Table walker requests started/completed, data/inst
system.cpu.dtb.walker.walkRequestOrigin_Completed::total            0                       # Table walker requests started/completed, data/inst
system.cpu.dtb.walker.walkRequestOrigin::total            0                       # Table walker requests started/completed, data/inst
system.cpu.dtb.inst_hits                            0                       # ITB inst hits
system.cpu.dtb.inst_misses                          0                       # ITB inst misses
system.cpu.dtb.read_hits                            0                       # DTB read hits
system.cpu.dtb.read_misses                          0                       # DTB read misses
system.cpu.dtb.write_hits                           0                       # DTB write hits
system.cpu.dtb.write_misses                         0                       # DTB write misses
system.cpu.dtb.flush_tlb                            0                       # Number of times complete TLB was flushed
system.cpu.dtb.flush_tlb_mva                        0                       # Number of times TLB was flushed by MVA
system.cpu.dtb.flush_tlb_mva_asid                   0                       # Number of times TLB was flushed by MVA & ASID
system.cpu.dtb.flush_tlb_asid                       0                       # Number of times TLB was flushed by ASID
system.cpu.dtb.flush_entries                        0                       # Number of entries that have been flushed from TLB
system.cpu.dtb.align_faults                         0                       # Number of TLB faults due to alignment restrictions
system.cpu.dtb.prefetch_faults                      0                       # Number of TLB faults due to prefetch
system.cpu.dtb.domain_faults                        0                       # Number of TLB faults due to domain restrictions
system.cpu.dtb.perms_faults                         0                       # Number of TLB faults due to permissions restrictions
system.cpu.dtb.read_accesses                        0                       # DTB read accesses
system.cpu.dtb.write_accesses                       0                       # DTB write accesses
system.cpu.dtb.inst_accesses                        0                       # ITB inst accesses
system.cpu.dtb.hits                                 0                       # DTB hits
system.cpu.dtb.misses                               0                       # DTB misses
system.cpu.dtb.accesses                             0                       # DTB accesses
system.cpu.istage2_mmu.stage2_tlb.walker.walks            0                       # Table walker walks requested
system.cpu.istage2_mmu.stage2_tlb.walker.walkRequestOrigin_Requested::Data            0                       # Table walker requests started/completed, data/inst
system.cpu.istage2_mmu.stage2_tlb.walker.walkRequestOrigin_Requested::Inst            0                       # Table walker requests started/completed, data/inst
system.cpu.istage2_mmu.stage2_tlb.walker.walkRequestOrigin_Requested::total            0                       # Table walker requests started/completed, data/inst
system.cpu.istage2_mmu.stage2_tlb.walker.walkRequestOrigin_Completed::Data            0                       # Table walker requests started/completed, data/inst
system.cpu.istage2_mmu.stage2_tlb.walker.walkRequestOrigin_Completed::Inst            0                       # Table walker requests started/completed, data/inst
system.cpu.istage2_mmu.stage2_tlb.walker.walkRequestOrigin_Completed::total            0                       # Table walker requests started/completed, data/inst
system.cpu.istage2_mmu.stage2_tlb.walker.walkRequestOrigin::total            0                       # Table walker requests started/completed, data/inst
system.cpu.istage2_mmu.stage2_tlb.inst_hits            0                       # ITB inst hits
system.cpu.istage2_mmu.stage2_tlb.inst_misses            0                       # ITB inst misses
system.cpu.istage2_mmu.stage2_tlb.read_hits            0                       # DTB read hits
system.cpu.istage2_mmu.stage2_tlb.read_misses            0                       # DTB read misses
system.cpu.istage2_mmu.stage2_tlb.write_hits            0                       # DTB write hits
system.cpu.istage2_mmu.stage2_tlb.write_misses            0                       # DTB write misses
system.cpu.istage2_mmu.stage2_tlb.flush_tlb            0                       # Number of times complete TLB was flushed
system.cpu.istage2_mmu.stage2_tlb.flush_tlb_mva            0                       # Number of times TLB was flushed by MVA
system.cpu.istage2_mmu.stage2_tlb.flush_tlb_mva_asid            0                       # Number of times TLB was flushed by MVA & ASID
system.cpu.istage2_mmu.stage2_tlb.flush_tlb_asid            0                       # Number of times TLB was flushed by ASID
system.cpu.istage2_mmu.stage2_tlb.flush_entries            0                       # Number of entries that have been flushed from TLB
system.cpu.istage2_mmu.stage2_tlb.align_faults            0                       # Number of TLB faults due to alignment restrictions
system.cpu.istage2_mmu.stage2_tlb.prefetch_faults            0                       # Number of TLB faults due to prefetch
system.cpu.istage2_mmu.stage2_tlb.domain_faults            0                       # Number of TLB faults due to domain restrictions
system.cpu.istage2_mmu.stage2_tlb.perms_faults            0                       # Number of TLB faults due to permissions restrictions
system.cpu.istage2_mmu.stage2_tlb.read_accesses            0                       # DTB read accesses
system.cpu.istage2_mmu.stage2_tlb.write_accesses            0                       # DTB write accesses
system.cpu.istage2_mmu.stage2_tlb.inst_accesses            0                       # ITB inst accesses
system.cpu.istage2_mmu.stage2_tlb.hits              0                       # DTB hits
system.cpu.istage2_mmu.stage2_tlb.misses            0                       # DTB misses
system.cpu.istage2_mmu.stage2_tlb.accesses            0                       # DTB accesses
system.cpu.itb.walker.walks                         0                       # Table walker walks requested
system.cpu.itb.walker.walkRequestOrigin_Requested::Data            0                       # Table walker requests started/completed, data/inst
system.cpu.itb.walker.walkRequestOrigin_Requested::Inst            0                       # Table walker requests started/completed, data/inst
system.cpu.itb.walker.walkRequestOrigin_Requested::total            0                       # Table walker requests started/completed, data/inst
system.cpu.itb.walker.walkRequestOrigin_Completed::Data            0                       # Table walker requests started/completed, data/inst
system.cpu.itb.walker.walkRequestOrigin_Completed::Inst            0                       # Table walker requests started/completed, data/inst
system.cpu.itb.walker.walkRequestOrigin_Completed::total            0                       # Table walker requests started/completed, data/inst
system.cpu.itb.walker.walkRequestOrigin::total            0                       # Table walker requests started/completed, data/inst
system.cpu.itb.inst_hits                            0                       # ITB inst hits
system.cpu.itb.inst_misses                          0                       # ITB inst misses
system.cpu.itb.read_hits                            0                       # DTB read hits
system.cpu.itb.read_misses                          0                       # DTB read misses
system.cpu.itb.write_hits                           0                       # DTB write hits
system.cpu.itb.write_misses                         0                       # DTB write misses
system.cpu.itb.flush_tlb                            0                       # Number of times complete TLB was flushed
system.cpu.itb.flush_tlb_mva                        0                       # Number of times TLB was flushed by MVA
system.cpu.itb.flush_tlb_mva_asid                   0                       # Number of times TLB was flushed by MVA & ASID
system.cpu.itb.flush_tlb_asid                       0                       # Number of times TLB was flushed by ASID
system.cpu.itb.flush_entries                        0                       # Number of entries that have been flushed from TLB
system.cpu.itb.align_faults                         0                       # Number of TLB faults due to alignment restrictions
system.cpu.itb.prefetch_faults                      0                       # Number of TLB faults due to prefetch
system.cpu.itb.domain_faults                        0                       # Number of TLB faults due to domain restrictions
system.cpu.itb.perms_faults                         0                       # Number of TLB faults due to permissions restrictions
system.cpu.itb.read_accesses                        0                       # DTB read accesses
system.cpu.itb.write_accesses                       0                       # DTB write accesses
system.cpu.itb.inst_accesses                        0                       # ITB inst accesses
system.cpu.itb.hits                                 0                       # DTB hits
system.cpu.itb.misses                               0                       # DTB misses
system.cpu.itb.accesses                             0                       # DTB accesses
system.cpu.workload.num_syscalls                   15                       # Number of system calls
system.cpu.numCycles                            72007                       # number of cpu cycles simulated
system.cpu.numWorkItemsStarted                      0                       # number of work items this cpu started
system.cpu.numWorkItemsCompleted                    0                       # number of work items this cpu completed
system.cpu.fetch.icacheStallCycles              19047                       # Number of cycles fetch is stalled on an Icache miss
system.cpu.fetch.Insts                          50407                       # Number of instructions fetch has processed
system.cpu.fetch.Branches                        8634                       # Number of branches that fetch encountered
system.cpu.fetch.predictedBranches               3877                       # Number of branches that fetch has predicted taken
system.cpu.fetch.Cycles                         21477                       # Number of cycles fetch has run and was not squashing or blocked
system.cpu.fetch.SquashCycles                    1875                       # Number of cycles fetch has spent squashing
system.cpu.fetch.CacheLines                      6475                       # Number of cache lines fetched
system.cpu.fetch.IcacheSquashes                   596                       # Number of outstanding Icache misses that were squashed
system.cpu.fetch.rateDist::samples              41461                       # Number of instructions fetched each cycle (Total)
system.cpu.fetch.rateDist::mean              1.392682                       # Number of instructions fetched each cycle (Total)
system.cpu.fetch.rateDist::stdev             2.738946                       # Number of instructions fetched each cycle (Total)
system.cpu.fetch.rateDist::underflows               0      0.00%      0.00% # Number of instructions fetched each cycle (Total)
system.cpu.fetch.rateDist::0                    31243     75.36%     75.36% # Number of instructions fetched each cycle (Total)
system.cpu.fetch.rateDist::1                      887      2.14%     77.49% # Number of instructions fetched each cycle (Total)
system.cpu.fetch.rateDist::2                     1026      2.47%     79.97% # Number of instructions fetched each cycle (Total)
system.cpu.fetch.rateDist::3                      713      1.72%     81.69% # Number of instructions fetched each cycle (Total)
system.cpu.fetch.rateDist::4                      817      1.97%     83.66% # Number of instructions fetched each cycle (Total)
system.cpu.fetch.rateDist::5                      636      1.53%     85.19% # Number of instructions fetched each cycle (Total)
system.cpu.fetch.rateDist::6                      803      1.94%     87.13% # Number of instructions fetched each cycle (Total)
system.cpu.fetch.rateDist::7                     1290      3.11%     90.24% # Number of instructions fetched each cycle (Total)
system.cpu.fetch.rateDist::8                     4046      9.76%    100.00% # Number of instructions fetched each cycle (Total)
system.cpu.fetch.rateDist::overflows                0      0.00%    100.00% # Number of instructions fetched each cycle (Total)
system.cpu.fetch.rateDist::min_value                0                       # Number of instructions fetched each cycle (Total)
system.cpu.fetch.rateDist::max_value                8                       # Number of instructions fetched each cycle (Total)
system.cpu.fetch.rateDist::total                41461                       # Number of instructions fetched each cycle (Total)
system.cpu.fetch.branchRate                  0.119905                       # Number of branch fetches per cycle
system.cpu.fetch.rate                        0.700029                       # Number of inst fetches per cycle
system.cpu.decode.IdleCycles                    14249                       # Number of cycles decode is idle
system.cpu.decode.BlockedCycles                 18687                       # Number of cycles decode is blocked
system.cpu.decode.RunCycles                      5890                       # Number of cycles decode is running
system.cpu.decode.UnblockCycles                  1980                       # Number of cycles decode is unblocking
system.cpu.decode.SquashCycles                    655                       # Number of cycles decode is squashing
system.cpu.decode.BranchResolved                  949                       # Number of times decode resolved a branch
system.cpu.decode.BranchMispred                   293                       # Number of times decode detected a branch misprediction
system.cpu.decode.DecodedInsts                  49813                       # Number of instructions handled by decode
system.cpu.decode.SquashedInsts                  1075                       # Number of squashed instructions handled by decode
system.cpu.rename.SquashCycles                    655                       # Number of cycles rename is squashing
system.cpu.rename.IdleCycles                    15272                       # Number of cycles rename is idle
system.cpu.rename.BlockCycles                    3130                       # Number of cycles rename is blocking
system.cpu.rename.serializeStallCycles           6127                       # count of cycles rename stalled for serializing inst
system.cpu.rename.RunCycles                      6810                       # Number of cycles rename is running
system.cpu.rename.UnblockCycles                  9467                       # Number of cycles rename is unblocking
system.cpu.rename.RenamedInsts                  48083                       # Number of instructions processed by rename
system.cpu.rename.ROBFullEvents                     4                       # Number of times rename has blocked due to ROB full
system.cpu.rename.IQFullEvents                   3615                       # Number of times rename has blocked due to IQ full
system.cpu.rename.LQFullEvents                    238                       # Number of times rename has blocked due to LQ full
system.cpu.rename.SQFullEvents                   5352                       # Number of times rename has blocked due to SQ full
system.cpu.rename.RenamedOperands               54043                       # Number of destination operands rename has renamed
system.cpu.rename.RenameLookups                226030                       # Number of register rename lookups that rename has made
system.cpu.rename.int_rename_lookups            61506                       # Number of integer rename lookups
system.cpu.rename.fp_rename_lookups                22                       # Number of floating rename lookups
system.cpu.rename.CommittedMaps                 33027                       # Number of HB maps that are committed
system.cpu.rename.UndoneMaps                    21016                       # Number of HB maps that are undone due to squashing
system.cpu.rename.serializingInsts                117                       # count of serializing insts renamed
system.cpu.rename.tempSerializingInsts            115                       # count of temporary serializing insts renamed
system.cpu.rename.skidInsts                      9544                       # count of insts added to the skid buffer
system.cpu.memDep0.insertedLoads                 8596                       # Number of loads inserted to the mem dependence unit.
system.cpu.memDep0.insertedStores                6110                       # Number of stores inserted to the mem dependence unit.
system.cpu.memDep0.conflictingLoads               669                       # Number of conflicting loads.
system.cpu.memDep0.conflictingStores              444                       # Number of conflicting stores.
system.cpu.iq.iqInstsAdded                      45657                       # Number of instructions added to the IQ (excludes non-spec)
system.cpu.iq.iqNonSpecInstsAdded                 254                       # Number of non-speculative instructions added to the IQ
system.cpu.iq.iqInstsIssued                     33313                       # Number of instructions issued
system.cpu.iq.iqSquashedInstsIssued              1799                       # Number of squashed instructions issued
system.cpu.iq.iqSquashedInstsExamined           16560                       # Number of squashed instructions iterated over during squash; mainly for profiling
system.cpu.iq.iqSquashedOperandsExamined        61236                       # Number of squashed operands that are examined and possibly removed from graph
system.cpu.iq.iqSquashedNonSpecRemoved             79                       # Number of squashed non-spec instructions that were removed
system.cpu.iq.issued_per_cycle::samples         41461                       # Number of insts issued each cycle
system.cpu.iq.issued_per_cycle::mean         0.803478                       # Number of insts issued each cycle
system.cpu.iq.issued_per_cycle::stdev        0.947802                       # Number of insts issued each cycle
system.cpu.iq.issued_per_cycle::underflows            0      0.00%      0.00% # Number of insts issued each cycle
system.cpu.iq.issued_per_cycle::0               23497     56.67%     56.67% # Number of insts issued each cycle
system.cpu.iq.issued_per_cycle::1                2615      6.31%     62.98% # Number of insts issued each cycle
system.cpu.iq.issued_per_cycle::2               15349     37.02%    100.00% # Number of insts issued each cycle
system.cpu.iq.issued_per_cycle::overflows            0      0.00%    100.00% # Number of insts issued each cycle
system.cpu.iq.issued_per_cycle::min_value            0                       # Number of insts issued each cycle
system.cpu.iq.issued_per_cycle::max_value            2                       # Number of insts issued each cycle
system.cpu.iq.issued_per_cycle::total           41461                       # Number of insts issued each cycle
system.cpu.iq.fu_full::No_OpClass                   0                       # attempts to use FU when none available
system.cpu.iq.fu_full::IntAlu                       0                       # attempts to use FU when none available
system.cpu.iq.fu_full::IntMult                      0                       # attempts to use FU when none available
system.cpu.iq.fu_full::IntDiv                       0                       # attempts to use FU when none available
system.cpu.iq.fu_full::FloatAdd                     0                       # attempts to use FU when none available
system.cpu.iq.fu_full::FloatCmp                     0                       # attempts to use FU when none available
system.cpu.iq.fu_full::FloatCvt                     0                       # attempts to use FU when none available
system.cpu.iq.fu_full::FloatMult                    0                       # attempts to use FU when none available
system.cpu.iq.fu_full::FloatDiv                     0                       # attempts to use FU when none available
system.cpu.iq.fu_full::FloatSqrt                    0                       # attempts to use FU when none available
system.cpu.iq.fu_full::SimdAdd                      0                       # attempts to use FU when none available
system.cpu.iq.fu_full::SimdAddAcc                   0                       # attempts to use FU when none available
system.cpu.iq.fu_full::SimdAlu                      0                       # attempts to use FU when none available
system.cpu.iq.fu_full::SimdCmp                      0                       # attempts to use FU when none available
system.cpu.iq.fu_full::SimdCvt                      0                       # attempts to use FU when none available
system.cpu.iq.fu_full::SimdMisc                     0                       # attempts to use FU when none available
system.cpu.iq.fu_full::SimdMult                     0                       # attempts to use FU when none available
system.cpu.iq.fu_full::SimdMultAcc                  0                       # attempts to use FU when none available
system.cpu.iq.fu_full::SimdShift                    0                       # attempts to use FU when none available
system.cpu.iq.fu_full::SimdShiftAcc                 0                       # attempts to use FU when none available
system.cpu.iq.fu_full::SimdSqrt                     0                       # attempts to use FU when none available
system.cpu.iq.fu_full::SimdFloatAdd                 0                       # attempts to use FU when none available
system.cpu.iq.fu_full::SimdFloatAlu                 0                       # attempts to use FU when none available
system.cpu.iq.fu_full::SimdFloatCmp                 0                       # attempts to use FU when none available
system.cpu.iq.fu_full::SimdFloatCvt                 0                       # attempts to use FU when none available
system.cpu.iq.fu_full::SimdFloatDiv                 0                       # attempts to use FU when none available
system.cpu.iq.fu_full::SimdFloatMisc                0                       # attempts to use FU when none available
system.cpu.iq.fu_full::SimdFloatMult                0                       # attempts to use FU when none available
system.cpu.iq.fu_full::SimdFloatMultAcc             0                       # attempts to use FU when none available
system.cpu.iq.fu_full::SimdFloatSqrt                0                       # attempts to use FU when none available
system.cpu.iq.fu_full::MemRead                      0                       # attempts to use FU when none available
system.cpu.iq.fu_full::MemWrite                     0                       # attempts to use FU when none available
system.cpu.iq.fu_full::IprAccess                    0                       # attempts to use FU when none available
system.cpu.iq.fu_full::InstPrefetch                 0                       # attempts to use FU when none available
system.cpu.iq.FU_type_0::No_OpClass                 0      0.00%      0.00% # Type of FU issued
system.cpu.iq.FU_type_0::IntAlu                 20462     61.42%     61.42% # Type of FU issued
system.cpu.iq.FU_type_0::IntMult                 1690      5.07%     66.50% # Type of FU issued
system.cpu.iq.FU_type_0::IntDiv                     0      0.00%     66.50% # Type of FU issued
system.cpu.iq.FU_type_0::FloatAdd                   0      0.00%     66.50% # Type of FU issued
system.cpu.iq.FU_type_0::FloatCmp                   0      0.00%     66.50% # Type of FU issued
system.cpu.iq.FU_type_0::FloatCvt                   0      0.00%     66.50% # Type of FU issued
system.cpu.iq.FU_type_0::FloatMult                  0      0.00%     66.50% # Type of FU issued
system.cpu.iq.FU_type_0::FloatDiv                   0      0.00%     66.50% # Type of FU issued
system.cpu.iq.FU_type_0::FloatSqrt                  0      0.00%     66.50% # Type of FU issued
system.cpu.iq.FU_type_0::SimdAdd                    0      0.00%     66.50% # Type of FU issued
system.cpu.iq.FU_type_0::SimdAddAcc                 0      0.00%     66.50% # Type of FU issued
system.cpu.iq.FU_type_0::SimdAlu                    0      0.00%     66.50% # Type of FU issued
system.cpu.iq.FU_type_0::SimdCmp                    0      0.00%     66.50% # Type of FU issued
system.cpu.iq.FU_type_0::SimdCvt                    0      0.00%     66.50% # Type of FU issued
system.cpu.iq.FU_type_0::SimdMisc                   0      0.00%     66.50% # Type of FU issued
system.cpu.iq.FU_type_0::SimdMult                   0      0.00%     66.50% # Type of FU issued
system.cpu.iq.FU_type_0::SimdMultAcc                0      0.00%     66.50% # Type of FU issued
system.cpu.iq.FU_type_0::SimdShift                  0      0.00%     66.50% # Type of FU issued
system.cpu.iq.FU_type_0::SimdShiftAcc               0      0.00%     66.50% # Type of FU issued
system.cpu.iq.FU_type_0::SimdSqrt                   0      0.00%     66.50% # Type of FU issued
system.cpu.iq.FU_type_0::SimdFloatAdd               0      0.00%     66.50% # Type of FU issued
system.cpu.iq.FU_type_0::SimdFloatAlu               0      0.00%     66.50% # Type of FU issued
system.cpu.iq.FU_type_0::SimdFloatCmp               0      0.00%     66.50% # Type of FU issued
system.cpu.iq.FU_type_0::SimdFloatCvt               0      0.00%     66.50% # Type of FU issued
system.cpu.iq.FU_type_0::SimdFloatDiv               0      0.00%     66.50% # Type of FU issued
system.cpu.iq.FU_type_0::SimdFloatMisc              3      0.01%     66.51% # Type of FU issued
system.cpu.iq.FU_type_0::SimdFloatMult              0      0.00%     66.51% # Type of FU issued
system.cpu.iq.FU_type_0::SimdFloatMultAcc            0      0.00%     66.51% # Type of FU issued
system.cpu.iq.FU_type_0::SimdFloatSqrt              0      0.00%     66.51% # Type of FU issued
system.cpu.iq.FU_type_0::MemRead                 6442     19.34%     85.84% # Type of FU issued
system.cpu.iq.FU_type_0::MemWrite                4716     14.16%    100.00% # Type of FU issued
system.cpu.iq.FU_type_0::IprAccess                  0      0.00%    100.00% # Type of FU issued
system.cpu.iq.FU_type_0::InstPrefetch               0      0.00%    100.00% # Type of FU issued
system.cpu.iq.FU_type_0::total                  33313                       # Type of FU issued
system.cpu.iq.rate                           0.462636                       # Inst issue rate
system.cpu.iq.fu_busy_cnt                           0                       # FU busy when requested
system.cpu.iq.fu_busy_rate                          0                       # FU busy rate (busy events/executed inst)
system.cpu.iq.int_inst_queue_reads             109830                       # Number of integer instruction queue reads
system.cpu.iq.int_inst_queue_writes             62471                       # Number of integer instruction queue writes
system.cpu.iq.int_inst_queue_wakeup_accesses        32302                       # Number of integer instruction queue wakeup accesses
system.cpu.iq.fp_inst_queue_reads                  56                       # Number of floating instruction queue reads
system.cpu.iq.fp_inst_queue_writes                 28                       # Number of floating instruction queue writes
system.cpu.iq.fp_inst_queue_wakeup_accesses           28                       # Number of floating instruction queue wakeup accesses
system.cpu.iq.int_alu_accesses                  33285                       # Number of integer alu accesses
system.cpu.iq.fp_alu_accesses                      28                       # Number of floating point alu accesses
system.cpu.iew.lsq.thread0.forwLoads               64                       # Number of loads that had data forwarded from stores
system.cpu.iew.lsq.thread0.invAddrLoads             0                       # Number of loads ignored due to an invalid address
system.cpu.iew.lsq.thread0.squashedLoads         3450                       # Number of loads squashed
system.cpu.iew.lsq.thread0.ignoredResponses            2                       # Number of memory responses ignored because the instruction is squashed
system.cpu.iew.lsq.thread0.memOrderViolation           28                       # Number of memory ordering violations
system.cpu.iew.lsq.thread0.squashedStores         1707                       # Number of stores squashed
system.cpu.iew.lsq.thread0.invAddrSwpfs             0                       # Number of software prefetches ignored due to an invalid address
system.cpu.iew.lsq.thread0.blockedLoads             0                       # Number of blocked loads due to partial load-store forwarding
system.cpu.iew.lsq.thread0.rescheduledLoads           26                       # Number of loads that were rescheduled
system.cpu.iew.lsq.thread0.cacheBlocked            55                       # Number of times an access to memory failed due to the cache being blocked
system.cpu.iew.iewIdleCycles                        0                       # Number of cycles IEW is idle
system.cpu.iew.iewSquashCycles                    655                       # Number of cycles IEW is squashing
system.cpu.iew.iewBlockCycles                    2368                       # Number of cycles IEW is blocking
system.cpu.iew.iewUnblockCycles                   403                       # Number of cycles IEW is unblocking
system.cpu.iew.iewDispatchedInsts               45920                       # Number of instructions dispatched to IQ
system.cpu.iew.iewDispSquashedInsts               104                       # Number of squashed instructions skipped by dispatch
system.cpu.iew.iewDispLoadInsts                  8596                       # Number of dispatched load instructions
system.cpu.iew.iewDispStoreInsts                 6110                       # Number of dispatched store instructions
system.cpu.iew.iewDispNonSpecInsts                111                       # Number of dispatched non-speculative instructions
system.cpu.iew.iewIQFullEvents                     13                       # Number of times the IQ has become full, causing a stall
system.cpu.iew.iewLSQFullEvents                   375                       # Number of times the LSQ has become full, causing a stall
system.cpu.iew.memOrderViolationEvents             28                       # Number of memory order violations
system.cpu.iew.predictedTakenIncorrect            118                       # Number of branches that were predicted taken incorrectly
system.cpu.iew.predictedNotTakenIncorrect          526                       # Number of branches that were predicted not taken incorrectly
system.cpu.iew.branchMispredicts                  644                       # Number of branch mispredicts detected at execute
system.cpu.iew.iewExecutedInsts                 32893                       # Number of executed instructions
system.cpu.iew.iewExecLoadInsts                  6263                       # Number of load instructions executed
system.cpu.iew.iewExecSquashedInsts               420                       # Number of squashed instructions skipped in execute
system.cpu.iew.exec_swp                             0                       # number of swp insts executed
system.cpu.iew.exec_nop                             9                       # number of nop insts executed
system.cpu.iew.exec_refs                        10857                       # number of memory reference insts executed
system.cpu.iew.exec_branches                     4321                       # Number of branches executed
system.cpu.iew.exec_stores                       4594                       # Number of stores executed
system.cpu.iew.exec_rate                     0.456803                       # Inst execution rate
system.cpu.iew.wb_sent                          32494                       # cumulative count of insts sent to commit
system.cpu.iew.wb_count                         32330                       # cumulative count of insts written-back
system.cpu.iew.wb_producers                     20525                       # num instructions producing a value
system.cpu.iew.wb_consumers                     43431                       # num instructions consuming a value
system.cpu.iew.wb_penalized                         0                       # number of instrctions required to write to 'other' IQ
system.cpu.iew.wb_rate                       0.448984                       # insts written-back per cycle
system.cpu.iew.wb_fanout                     0.472589                       # average fanout of values written-back
system.cpu.iew.wb_penalized_rate                    0                       # fraction of instructions written-back that wrote to 'other' IQ
system.cpu.commit.commitSquashedInsts           16572                       # The number of squashed insts skipped by commit
system.cpu.commit.commitNonSpecStalls             175                       # The number of times commit has been forced to stall to communicate backwards
system.cpu.commit.branchMispredicts               617                       # The number of times a branch was mispredicted
system.cpu.commit.committed_per_cycle::samples        38967                       # Number of insts commited each cycle
system.cpu.commit.committed_per_cycle::mean     0.753227                       # Number of insts commited each cycle
system.cpu.commit.committed_per_cycle::stdev     1.497822                       # Number of insts commited each cycle
system.cpu.commit.committed_per_cycle::underflows            0      0.00%      0.00% # Number of insts commited each cycle
system.cpu.commit.committed_per_cycle::0        26208     67.26%     67.26% # Number of insts commited each cycle
system.cpu.commit.committed_per_cycle::1         4948     12.70%     79.95% # Number of insts commited each cycle
system.cpu.commit.committed_per_cycle::2         4980     12.78%     92.73% # Number of insts commited each cycle
system.cpu.commit.committed_per_cycle::3          904      2.32%     95.05% # Number of insts commited each cycle
system.cpu.commit.committed_per_cycle::4          435      1.12%     96.17% # Number of insts commited each cycle
system.cpu.commit.committed_per_cycle::5          464      1.19%     97.36% # Number of insts commited each cycle
system.cpu.commit.committed_per_cycle::6          233      0.60%     97.96% # Number of insts commited each cycle
system.cpu.commit.committed_per_cycle::7           87      0.22%     98.18% # Number of insts commited each cycle
system.cpu.commit.committed_per_cycle::8          708      1.82%    100.00% # Number of insts commited each cycle
system.cpu.commit.committed_per_cycle::overflows            0      0.00%    100.00% # Number of insts commited each cycle
system.cpu.commit.committed_per_cycle::min_value            0                       # Number of insts commited each cycle
system.cpu.commit.committed_per_cycle::max_value            8                       # Number of insts commited each cycle
system.cpu.commit.committed_per_cycle::total        38967                       # Number of insts commited each cycle
system.cpu.commit.committedInsts                25255                       # Number of instructions committed
system.cpu.commit.committedOps                  29351                       # Number of ops (including micro ops) committed
system.cpu.commit.swp_count                         0                       # Number of s/w prefetches committed
system.cpu.commit.refs                           9549                       # Number of memory references committed
system.cpu.commit.loads                          5146                       # Number of loads committed
system.cpu.commit.membars                         107                       # Number of memory barriers committed
system.cpu.commit.branches                       3729                       # Number of branches committed
system.cpu.commit.fp_insts                         28                       # Number of committed floating point instructions.
system.cpu.commit.int_insts                     26090                       # Number of committed integer instructions.
system.cpu.commit.function_calls                  269                       # Number of function calls committed.
system.cpu.commit.op_class_0::No_OpClass            0      0.00%      0.00% # Class of committed instruction
system.cpu.commit.op_class_0::IntAlu            18116     61.72%     61.72% # Class of committed instruction
system.cpu.commit.op_class_0::IntMult            1683      5.73%     67.46% # Class of committed instruction
system.cpu.commit.op_class_0::IntDiv                0      0.00%     67.46% # Class of committed instruction
system.cpu.commit.op_class_0::FloatAdd              0      0.00%     67.46% # Class of committed instruction
system.cpu.commit.op_class_0::FloatCmp              0      0.00%     67.46% # Class of committed instruction
system.cpu.commit.op_class_0::FloatCvt              0      0.00%     67.46% # Class of committed instruction
system.cpu.commit.op_class_0::FloatMult             0      0.00%     67.46% # Class of committed instruction
system.cpu.commit.op_class_0::FloatDiv              0      0.00%     67.46% # Class of committed instruction
system.cpu.commit.op_class_0::FloatSqrt             0      0.00%     67.46% # Class of committed instruction
system.cpu.commit.op_class_0::SimdAdd               0      0.00%     67.46% # Class of committed instruction
system.cpu.commit.op_class_0::SimdAddAcc            0      0.00%     67.46% # Class of committed instruction
system.cpu.commit.op_class_0::SimdAlu               0      0.00%     67.46% # Class of committed instruction
system.cpu.commit.op_class_0::SimdCmp               0      0.00%     67.46% # Class of committed instruction
system.cpu.commit.op_class_0::SimdCvt               0      0.00%     67.46% # Class of committed instruction
system.cpu.commit.op_class_0::SimdMisc              0      0.00%     67.46% # Class of committed instruction
system.cpu.commit.op_class_0::SimdMult              0      0.00%     67.46% # Class of committed instruction
system.cpu.commit.op_class_0::SimdMultAcc            0      0.00%     67.46% # Class of committed instruction
system.cpu.commit.op_class_0::SimdShift             0      0.00%     67.46% # Class of committed instruction
system.cpu.commit.op_class_0::SimdShiftAcc            0      0.00%     67.46% # Class of committed instruction
system.cpu.commit.op_class_0::SimdSqrt              0      0.00%     67.46% # Class of committed instruction
system.cpu.commit.op_class_0::SimdFloatAdd            0      0.00%     67.46% # Class of committed instruction
system.cpu.commit.op_class_0::SimdFloatAlu            0      0.00%     67.46% # Class of committed instruction
system.cpu.commit.op_class_0::SimdFloatCmp            0      0.00%     67.46% # Class of committed instruction
system.cpu.commit.op_class_0::SimdFloatCvt            0      0.00%     67.46% # Class of committed instruction
system.cpu.commit.op_class_0::SimdFloatDiv            0      0.00%     67.46% # Class of committed instruction
system.cpu.commit.op_class_0::SimdFloatMisc            3      0.01%     67.47% # Class of committed instruction
system.cpu.commit.op_class_0::SimdFloatMult            0      0.00%     67.47% # Class of committed instruction
system.cpu.commit.op_class_0::SimdFloatMultAcc            0      0.00%     67.47% # Class of committed instruction
system.cpu.commit.op_class_0::SimdFloatSqrt            0      0.00%     67.47% # Class of committed instruction
system.cpu.commit.op_class_0::MemRead            5146     17.53%     85.00% # Class of committed instruction
system.cpu.commit.op_class_0::MemWrite           4403     15.00%    100.00% # Class of committed instruction
system.cpu.commit.op_class_0::IprAccess             0      0.00%    100.00% # Class of committed instruction
system.cpu.commit.op_class_0::InstPrefetch            0      0.00%    100.00% # Class of committed instruction
system.cpu.commit.op_class_0::total             29351                       # Class of committed instruction
system.cpu.commit.bw_lim_events                   708                       # number cycles where commit BW limit reached
system.cpu.rob.rob_reads                        83999                       # The number of ROB reads
system.cpu.rob.rob_writes                       94351                       # The number of ROB writes
system.cpu.timesIdled                             380                       # Number of times that the entire CPU went into an idle state and unscheduled itself
system.cpu.idleCycles                           30546                       # Total number of cycles that the CPU has spent unscheduled due to idling
system.cpu.committedInsts                       25255                       # Number of Instructions Simulated
system.cpu.committedOps                         29351                       # Number of Ops (including micro ops) Simulated
system.cpu.cpi                               2.851198                       # CPI: Cycles Per Instruction
system.cpu.cpi_total                         2.851198                       # CPI: Total CPI of All Threads
system.cpu.ipc                               0.350730                       # IPC: Instructions Per Cycle
system.cpu.ipc_total                         0.350730                       # IPC: Total IPC of All Threads
system.cpu.int_regfile_reads                    41139                       # number of integer regfile reads
system.cpu.int_regfile_writes                   21392                       # number of integer regfile writes
system.cpu.fp_regfile_reads                        22                       # number of floating regfile reads
system.cpu.fp_regfile_writes                        6                       # number of floating regfile writes
system.cpu.cc_regfile_reads                    116227                       # number of cc regfile reads
system.cpu.cc_regfile_writes                    14995                       # number of cc regfile writes
system.cpu.misc_regfile_reads                   11930                       # number of misc regfile reads
system.cpu.misc_regfile_writes                    106                       # number of misc regfile writes
system.cpu.dcache.tags.replacements                17                       # number of replacements
system.cpu.dcache.tags.tagsinuse           167.022571                       # Cycle average of tags in use
system.cpu.dcache.tags.total_refs                8352                       # Total number of references to valid blocks.
system.cpu.dcache.tags.sampled_refs               310                       # Sample count of references to valid blocks.
system.cpu.dcache.tags.avg_refs             26.941935                       # Average number of references to valid blocks.
system.cpu.dcache.tags.warmup_cycle                 0                       # Cycle when the warmup percentage was hit.
system.cpu.dcache.tags.occ_blocks::cpu.data   167.022571                       # Average occupied blocks per requestor
system.cpu.dcache.tags.occ_percent::cpu.data     0.163108                       # Average percentage of cache occupancy
system.cpu.dcache.tags.occ_percent::total     0.163108                       # Average percentage of cache occupancy
system.cpu.dcache.tags.occ_task_id_blocks::1024          293                       # Occupied blocks per task id
[...]
system.cpu.dcache.ReadReq_mshr_hits::cpu.data           78                       # number of ReadReq MSHR hits
system.cpu.dcache.ReadReq_mshr_hits::total           78                       # number of ReadReq MSHR hits
system.cpu.dcache.WriteReq_mshr_hits::cpu.data         1587                       # number of WriteReq MSHR hits
system.cpu.dcache.WriteReq_mshr_hits::total         1587                       # number of WriteReq MSHR hits
system.cpu.dcache.demand_mshr_hits::cpu.data         1665                       # number of demand (read+write) MSHR hits
system.cpu.dcache.demand_mshr_hits::total         1665                       # number of demand (read+write) MSHR hits
system.cpu.dcache.overall_mshr_hits::cpu.data         1665                       # number of overall MSHR hits
system.cpu.dcache.overall_mshr_hits::total         1665                       # number of overall MSHR hits
system.cpu.dcache.ReadReq_mshr_misses::cpu.data          156                       # number of ReadReq MSHR misses
system.cpu.dcache.ReadReq_mshr_misses::total          156                       # number of ReadReq MSHR misses
system.cpu.dcache.WriteReq_mshr_misses::cpu.data          152                       # number of WriteReq MSHR misses
system.cpu.dcache.WriteReq_mshr_misses::total          152                       # number of WriteReq MSHR misses
system.cpu.dcache.LoadLockedReq_mshr_misses::cpu.data            2                       # number of LoadLockedReq MSHR misses
system.cpu.dcache.LoadLockedReq_mshr_misses::total            2                       # number of LoadLockedReq MSHR misses
system.cpu.dcache.demand_mshr_misses::cpu.data          308                       # number of demand (read+write) MSHR misses
system.cpu.dcache.demand_mshr_misses::total          308                       # number of demand (read+write) MSHR misses
system.cpu.dcache.overall_mshr_misses::cpu.data          308                       # number of overall MSHR misses
system.cpu.dcache.overall_mshr_misses::total          308                       # number of overall MSHR misses
system.cpu.dcache.ReadReq_mshr_miss_latency::cpu.data      9014500                       # number of ReadReq MSHR miss cycles
system.cpu.dcache.ReadReq_mshr_miss_latency::total      9014500                       # number of ReadReq MSHR miss cycles
system.cpu.dcache.WriteReq_mshr_miss_latency::cpu.data      8532495                       # number of WriteReq MSHR miss cycles
system.cpu.dcache.WriteReq_mshr_miss_latency::total      8532495                       # number of WriteReq MSHR miss cycles
system.cpu.dcache.LoadLockedReq_mshr_miss_latency::cpu.data       107750                       # number of LoadLockedReq MSHR miss cycles
system.cpu.dcache.LoadLockedReq_mshr_miss_latency::total       107750                       # number of LoadLockedReq MSHR miss cycles
system.cpu.dcache.demand_mshr_miss_latency::cpu.data     17546995                       # number of demand (read+write) MSHR miss cycles
system.cpu.dcache.demand_mshr_miss_latency::total     17546995                       # number of demand (read+write) MSHR miss cycles
system.cpu.dcache.overall_mshr_miss_latency::cpu.data     17546995                       # number of overall MSHR miss cycles
system.cpu.dcache.overall_mshr_miss_latency::total     17546995                       # number of overall MSHR miss cycles
system.cpu.dcache.ReadReq_mshr_miss_rate::cpu.data     0.026144                       # mshr miss rate for ReadReq accesses
system.cpu.dcache.ReadReq_mshr_miss_rate::total     0.026144                       # mshr miss rate for ReadReq accesses
system.cpu.dcache.WriteReq_mshr_miss_rate::cpu.data     0.035739                       # mshr miss rate for WriteReq accesses
system.cpu.dcache.WriteReq_mshr_miss_rate::total     0.035739                       # mshr miss rate for WriteReq accesses
system.cpu.dcache.LoadLockedReq_mshr_miss_rate::cpu.data     0.038462                       # mshr miss rate for LoadLockedReq accesses
system.cpu.dcache.LoadLockedReq_mshr_miss_rate::total     0.038462                       # mshr miss rate for LoadLockedReq accesses
system.cpu.dcache.demand_mshr_miss_rate::cpu.data     0.030137                       # mshr miss rate for demand accesses
system.cpu.dcache.demand_mshr_miss_rate::total     0.030137                       # mshr miss rate for demand accesses
system.cpu.dcache.overall_mshr_miss_rate::cpu.data     0.030128                       # mshr miss rate for overall accesses
system.cpu.dcache.overall_mshr_miss_rate::total     0.030128                       # mshr miss rate for overall accesses
system.cpu.dcache.ReadReq_avg_mshr_miss_latency::cpu.data 57785.256410                       # average ReadReq mshr miss latency
system.cpu.dcache.ReadReq_avg_mshr_miss_latency::total 57785.256410                       # average ReadReq mshr miss latency
system.cpu.dcache.WriteReq_avg_mshr_miss_latency::cpu.data 56134.835526                       # average WriteReq mshr miss latency
system.cpu.dcache.WriteReq_avg_mshr_miss_latency::total 56134.835526                       # average WriteReq mshr miss latency
system.cpu.dcache.LoadLockedReq_avg_mshr_miss_latency::cpu.data        53875                       # average LoadLockedReq mshr miss latency
system.cpu.dcache.LoadLockedReq_avg_mshr_miss_latency::total        53875                       # average LoadLockedReq mshr miss latency
system.cpu.dcache.demand_avg_mshr_miss_latency::cpu.data 56970.762987                       # average overall mshr miss latency
system.cpu.dcache.demand_avg_mshr_miss_latency::total 56970.762987                       # average overall mshr miss latency
system.cpu.dcache.overall_avg_mshr_miss_latency::cpu.data 56970.762987                       # average overall mshr miss latency
system.cpu.dcache.overall_avg_mshr_miss_latency::total 56970.762987                       # average overall mshr miss latency
system.cpu.dcache.no_allocate_misses                0                       # Number of misses that were no-allocate
system.cpu.icache.tags.replacements               205                       # number of replacements
system.cpu.icache.tags.tagsinuse           240.330643                       # Cycle average of tags in use
system.cpu.icache.tags.total_refs                5719                       # Total number of references to valid blocks.
system.cpu.icache.tags.sampled_refs               583                       # Sample count of references to valid blocks.
system.cpu.icache.tags.avg_refs              9.809605                       # Average number of references to valid blocks.
system.cpu.icache.tags.warmup_cycle                 0                       # Cycle when the warmup percentage was hit.
system.cpu.icache.tags.occ_blocks::cpu.inst   240.330643                       # Average occupied blocks per requestor
system.cpu.icache.tags.occ_percent::cpu.inst     0.469396                       # Average percentage of cache occupancy
system.cpu.icache.tags.occ_percent::total     0.469396                       # Average percentage of cache occupancy
system.cpu.icache.tags.occ_task_id_blocks::1024          378                       # Occupied blocks per task id
system.cpu.icache.tags.age_task_id_blocks_1024::0          122                       # Occupied blocks per task id
system.cpu.icache.tags.age_task_id_blocks_1024::1          256                       # Occupied blocks per task id
system.cpu.icache.tags.occ_task_id_percent::1024     0.738281                       # Percentage of cache occupancy per task id
system.cpu.icache.tags.tag_accesses             13533                       # Number of tag accesses
system.cpu.icache.tags.data_accesses            13533                       # Number of data accesses
system.cpu.icache.ReadReq_hits::cpu.inst         5719                       # number of ReadReq hits
system.cpu.icache.ReadReq_hits::total            5719                       # number of ReadReq hits
system.cpu.icache.demand_hits::cpu.inst          5719                       # number of demand (read+write) hits
system.cpu.icache.demand_hits::total             5719                       # number of demand (read+write) hits
system.cpu.icache.overall_hits::cpu.inst         5719                       # number of overall hits
system.cpu.icache.overall_hits::total            5719                       # number of overall hits
system.cpu.icache.ReadReq_misses::cpu.inst          756                       # number of ReadReq misses
system.cpu.icache.ReadReq_misses::total           756                       # number of ReadReq misses
system.cpu.icache.demand_misses::cpu.inst          756                       # number of demand (read+write) misses
system.cpu.icache.demand_misses::total            756                       # number of demand (read+write) misses
system.cpu.icache.overall_misses::cpu.inst          756                       # number of overall misses
system.cpu.icache.overall_misses::total           756                       # number of overall misses
system.cpu.icache.ReadReq_miss_latency::cpu.inst     40691000                       # number of ReadReq miss cycles
system.cpu.icache.ReadReq_miss_latency::total     40691000                       # number of ReadReq miss cycles
system.cpu.icache.demand_miss_latency::cpu.inst     40691000                       # number of demand (read+write) miss cycles
system.cpu.icache.demand_miss_latency::total     40691000                       # number of demand (read+write) miss cycles
system.cpu.icache.overall_miss_latency::cpu.inst     40691000                       # number of overall miss cycles
system.cpu.icache.overall_miss_latency::total     40691000                       # number of overall miss cycles
system.cpu.icache.ReadReq_accesses::cpu.inst         6475                       # number of ReadReq accesses(hits+misses)
system.cpu.icache.ReadReq_accesses::total         6475                       # number of ReadReq accesses(hits+misses)
system.cpu.icache.demand_accesses::cpu.inst         6475                       # number of demand (read+write) accesses
system.cpu.icache.demand_accesses::total         6475                       # number of demand (read+write) accesses
system.cpu.icache.overall_accesses::cpu.inst         6475                       # number of overall (read+write) accesses
system.cpu.icache.overall_accesses::total         6475                       # number of overall (read+write) accesses
system.cpu.icache.ReadReq_miss_rate::cpu.inst     0.116757                       # miss rate for ReadReq accesses
system.cpu.icache.ReadReq_miss_rate::total     0.116757                       # miss rate for ReadReq accesses
system.cpu.icache.demand_miss_rate::cpu.inst     0.116757                       # miss rate for demand accesses
system.cpu.icache.demand_miss_rate::total     0.116757                       # miss rate for demand accesses
system.cpu.icache.overall_miss_rate::cpu.inst     0.116757                       # miss rate for overall accesses
system.cpu.icache.overall_miss_rate::total     0.116757                       # miss rate for overall accesses
system.cpu.icache.ReadReq_avg_miss_latency::cpu.inst 53824.074074                       # average ReadReq miss latency
system.cpu.icache.ReadReq_avg_miss_latency::total 53824.074074                       # average ReadReq miss latency
system.cpu.icache.demand_avg_miss_latency::cpu.inst 53824.074074                       # average overall miss latency
system.cpu.icache.demand_avg_miss_latency::total 53824.074074                       # average overall miss latency
system.cpu.icache.overall_avg_miss_latency::cpu.inst 53824.074074                       # average overall miss latency
system.cpu.icache.overall_avg_miss_latency::total 53824.074074                       # average overall miss latency
system.cpu.icache.blocked_cycles::no_mshrs          204                       # number of cycles access was blocked
system.cpu.icache.blocked_cycles::no_targets            0                       # number of cycles access was blocked
system.cpu.icache.blocked::no_mshrs                 4                       # number of cycles access was blocked
system.cpu.icache.blocked::no_targets               0                       # number of cycles access was blocked
system.cpu.icache.avg_blocked_cycles::no_mshrs           51                       # average number of cycles each access was blocked
system.cpu.icache.avg_blocked_cycles::no_targets          nan                       # average number of cycles each access was blocked
system.cpu.icache.fast_writes                       0                       # number of fast writes performed
system.cpu.icache.cache_copies                      0                       # number of cache copies performed
system.cpu.icache.ReadReq_mshr_hits::cpu.inst          172                       # number of ReadReq MSHR hits
system.cpu.icache.ReadReq_mshr_hits::total          172                       # number of ReadReq MSHR hits
system.cpu.icache.demand_mshr_hits::cpu.inst          172                       # number of demand (read+write) MSHR hits
system.cpu.icache.demand_mshr_hits::total          172                       # number of demand (read+write) MSHR hits
system.cpu.icache.overall_mshr_hits::cpu.inst          172                       # number of overall MSHR hits
system.cpu.icache.overall_mshr_hits::total          172                       # number of overall MSHR hits
system.cpu.icache.ReadReq_mshr_misses::cpu.inst          584                       # number of ReadReq MSHR misses
system.cpu.icache.ReadReq_mshr_misses::total          584                       # number of ReadReq MSHR misses
system.cpu.icache.demand_mshr_misses::cpu.inst          584                       # number of demand (read+write) MSHR misses
system.cpu.icache.demand_mshr_misses::total          584                       # number of demand (read+write) MSHR misses
system.cpu.icache.overall_mshr_misses::cpu.inst          584                       # number of overall MSHR misses
system.cpu.icache.overall_mshr_misses::total          584                       # number of overall MSHR misses
system.cpu.icache.ReadReq_mshr_miss_latency::cpu.inst     31072500                       # number of ReadReq MSHR miss cycles
system.cpu.icache.ReadReq_mshr_miss_latency::total     31072500                       # number of ReadReq MSHR miss cycles
system.cpu.icache.demand_mshr_miss_latency::cpu.inst     31072500                       # number of demand (read+write) MSHR miss cycles
system.cpu.icache.demand_mshr_miss_latency::total     31072500                       # number of demand (read+write) MSHR miss cycles
system.cpu.icache.overall_mshr_miss_latency::cpu.inst     31072500                       # number of overall MSHR miss cycles
system.cpu.icache.overall_mshr_miss_latency::total     31072500                       # number of overall MSHR miss cycles
system.cpu.icache.ReadReq_mshr_miss_rate::cpu.inst     0.090193                       # mshr miss rate for ReadReq accesses
system.cpu.icache.ReadReq_mshr_miss_rate::total     0.090193                       # mshr miss rate for ReadReq accesses
system.cpu.icache.demand_mshr_miss_rate::cpu.inst     0.090193                       # mshr miss rate for demand accesses
system.cpu.icache.demand_mshr_miss_rate::total     0.090193                       # mshr miss rate for demand accesses
system.cpu.icache.overall_mshr_miss_rate::cpu.inst     0.090193                       # mshr miss rate for overall accesses
system.cpu.icache.overall_mshr_miss_rate::total     0.090193                       # mshr miss rate for overall accesses
system.cpu.icache.ReadReq_avg_mshr_miss_latency::cpu.inst 53206.335616                       # average ReadReq mshr miss latency
system.cpu.icache.ReadReq_avg_mshr_miss_latency::total 53206.335616                       # average ReadReq mshr miss latency
system.cpu.icache.demand_avg_mshr_miss_latency::cpu.inst 53206.335616                       # average overall mshr miss latency
system.cpu.icache.demand_avg_mshr_miss_latency::total 53206.335616                       # average overall mshr miss latency
system.cpu.icache.overall_avg_mshr_miss_latency::cpu.inst 53206.335616                       # average overall mshr miss latency
system.cpu.icache.overall_avg_mshr_miss_latency::total 53206.335616                       # average overall mshr miss latency
system.cpu.icache.no_allocate_misses                0                       # Number of misses that were no-allocate
system.membus.trans_dist::ReadReq                 742                       # Transaction distribution
system.membus.trans_dist::ReadResp                741                       # Transaction distribution
system.membus.trans_dist::Writeback                 5                       # Transaction distribution
system.membus.trans_dist::ReadExReq               152                       # Transaction distribution
system.membus.trans_dist::ReadExResp              152                       # Transaction distribution
system.membus.pkt_count_system.cpu.icache.mem_side::system.mem_ctrls.port         1167                       # Packet count per connected master and slave (bytes)
system.membus.pkt_count_system.cpu.dcache.mem_side::system.mem_ctrls.port          625                       # Packet count per connected master and slave (bytes)
system.membus.pkt_count::total                   1792                       # Packet count per connected master and slave (bytes)
system.membus.pkt_size_system.cpu.icache.mem_side::system.mem_ctrls.port        37312                       # Cumulative packet size per connected master and slave (bytes)
system.membus.pkt_size_system.cpu.dcache.mem_side::system.mem_ctrls.port        20160                       # Cumulative packet size per connected master and slave (bytes)
system.membus.pkt_size::total                   57472                       # Cumulative packet size per connected master and slave (bytes)
system.membus.snoops                                0                       # Total snoops (count)
system.membus.snoop_fanout::samples               899                       # Request fanout histogram
system.membus.snoop_fanout::mean                    1                       # Request fanout histogram
system.membus.snoop_fanout::stdev                   0                       # Request fanout histogram
system.membus.snoop_fanout::underflows              0      0.00%      0.00% # Request fanout histogram
system.membus.snoop_fanout::0                       0      0.00%      0.00% # Request fanout histogram
system.membus.snoop_fanout::1                     899    100.00%    100.00% # Request fanout histogram
system.membus.snoop_fanout::2                       0      0.00%    100.00% # Request fanout histogram
system.membus.snoop_fanout::overflows               0      0.00%    100.00% # Request fanout histogram
system.membus.snoop_fanout::min_value               1                       # Request fanout histogram
system.membus.snoop_fanout::max_value               1                       # Request fanout histogram
system.membus.snoop_fanout::total                 899                       # Request fanout histogram
system.membus.reqLayer0.occupancy             1115000                       # Layer occupancy (ticks)
system.membus.reqLayer0.utilization               3.1                       # Layer utilization (%)
system.membus.respLayer1.occupancy            3101500                       # Layer occupancy (ticks)
system.membus.respLayer1.utilization              8.6                       # Layer utilization (%)
system.membus.respLayer2.occupancy            1660500                       # Layer occupancy (ticks)
system.membus.respLayer2.utilization              4.6                       # Layer utilization (%)

---------- End Simulation Statistics   ----------
