
---------- Begin Simulation Statistics ----------
sim_seconds                                  0.000045                       # Number of seconds simulated
sim_ticks                                    44969000                       # Number of ticks simulated
final_tick                                   44969000                       # Number of ticks from beginning of simulation (restored from checkpoints and never reset)
sim_freq                                 1000000000000                       # Frequency of simulated ticks
host_inst_rate                                 173048                       # Simulator instruction rate (inst/s)
host_op_rate                                   180335                       # Simulator op (including micro ops) rate (op/s)
host_tick_rate                               15701984                       # Simulator tick rate (ticks/s)
host_mem_usage                                 733968                       # Number of bytes of host memory used
host_seconds                                     2.86                       # Real time elapsed on the host
sim_insts                                      495586                       # Number of instructions simulated
sim_ops                                        516458                       # Number of ops (including micro ops) simulated
system.voltage_domain.voltage                       1                       # Voltage in Volts
system.clk_domain.clock                          1000                       # Clock period in ticks
system.mem_ctrls.bytes_read::cpu00.inst         38080                       # Number of bytes read from this memory
system.mem_ctrls.bytes_read::cpu00.data         28352                       # Number of bytes read from this memory
system.mem_ctrls.bytes_read::cpu01.inst          3328                       # Number of bytes read from this memory
system.mem_ctrls.bytes_read::cpu01.data          1152                       # Number of bytes read from this memory
system.mem_ctrls.bytes_read::cpu02.inst          3264                       # Number of bytes read from this memory
system.mem_ctrls.bytes_read::cpu02.data          1088                       # Number of bytes read from this memory
system.mem_ctrls.bytes_read::cpu03.inst          3264                       # Number of bytes read from this memory
system.mem_ctrls.bytes_read::cpu03.data          1088                       # Number of bytes read from this memory
system.mem_ctrls.bytes_read::cpu04.inst          3264                       # Number of bytes read from this memory
system.mem_ctrls.bytes_read::cpu04.data          1088                       # Number of bytes read from this memory
system.mem_ctrls.bytes_read::cpu05.inst          3328                       # Number of bytes read from this memory
system.mem_ctrls.bytes_read::cpu05.data          1216                       # Number of bytes read from this memory
system.mem_ctrls.bytes_read::cpu06.inst          3264                       # Number of bytes read from this memory
system.mem_ctrls.bytes_read::cpu06.data          1088                       # Number of bytes read from this memory
system.mem_ctrls.bytes_read::cpu07.inst          3392                       # Number of bytes read from this memory
system.mem_ctrls.bytes_read::cpu07.data          1152                       # Number of bytes read from this memory
system.mem_ctrls.bytes_read::cpu08.inst          3392                       # Number of bytes read from this memory
system.mem_ctrls.bytes_read::cpu08.data          1152                       # Number of bytes read from this memory
system.mem_ctrls.bytes_read::cpu09.inst          3328                       # Number of bytes read from this memory
system.mem_ctrls.bytes_read::cpu09.data          1152                       # Number of bytes read from this memory
system.mem_ctrls.bytes_read::cpu10.inst          3392                       # Number of bytes read from this memory
system.mem_ctrls.bytes_read::cpu10.data          1152                       # Number of bytes read from this memory
system.mem_ctrls.bytes_read::cpu11.inst          3520                       # Number of bytes read from this memory
system.mem_ctrls.bytes_read::cpu11.data          1152                       # Number of bytes read from this memory
system.mem_ctrls.bytes_read::cpu12.inst          3328                       # Number of bytes read from this memory
system.mem_ctrls.bytes_read::cpu12.data          1152                       # Number of bytes read from this memory
system.mem_ctrls.bytes_read::cpu13.inst          3392                       # Number of bytes read from this memory
system.mem_ctrls.bytes_read::cpu13.data          1152                       # Number of bytes read from this memory
system.mem_ctrls.bytes_read::cpu14.inst          3328                       # Number of bytes read from this memory
system.mem_ctrls.bytes_read::cpu14.data          1152                       # Number of bytes read from this memory
system.mem_ctrls.bytes_read::cpu15.inst          3200                       # Number of bytes read from this memory
system.mem_ctrls.bytes_read::cpu15.data          1152                       # Number of bytes read from this memory
system.mem_ctrls.bytes_read::total             133504                       # Number of bytes read from this memory
system.mem_ctrls.bytes_inst_read::cpu00.inst        38080                       # Number of instructions bytes read from this memory
system.mem_ctrls.bytes_inst_read::cpu01.inst         3328                       # Number of instructions bytes read from this memory
system.mem_ctrls.bytes_inst_read::cpu02.inst         3264                       # Number of instructions bytes read from this memory
system.mem_ctrls.bytes_inst_read::cpu03.inst         3264                       # Number of instructions bytes read from this memory
system.mem_ctrls.bytes_inst_read::cpu04.inst         3264                       # Number of instructions bytes read from this memory
system.mem_ctrls.bytes_inst_read::cpu05.inst         3328                       # Number of instructions bytes read from this memory
system.mem_ctrls.bytes_inst_read::cpu06.inst         3264                       # Number of instructions bytes read from this memory
system.mem_ctrls.bytes_inst_read::cpu07.inst         3392                       # Number of instructions bytes read from this memory
system.mem_ctrls.bytes_inst_read::cpu08.inst         3392                       # Number of instructions bytes read from this memory
system.mem_ctrls.bytes_inst_read::cpu09.inst         3328                       # Number of instructions bytes read from this memory
system.mem_ctrls.bytes_inst_read::cpu10.inst         3392                       # Number of instructions bytes read from this memory
system.mem_ctrls.bytes_inst_read::cpu11.inst         3520                       # Number of instructions bytes read from this memory
system.mem_ctrls.bytes_inst_read::cpu12.inst         3328                       # Number of instructions bytes read from this memory
system.mem_ctrls.bytes_inst_read::cpu13.inst         3392                       # Number of instructions bytes read from this memory
system.mem_ctrls.bytes_inst_read::cpu14.inst         3328                       # Number of instructions bytes read from this memory
system.mem_ctrls.bytes_inst_read::cpu15.inst         3200                       # Number of instructions bytes read from this memory
system.mem_ctrls.bytes_inst_read::total         88064                       # Number of instructions bytes read from this memory
system.mem_ctrls.bytes_written::writebacks         1600                       # Number of bytes written to this memory
system.mem_ctrls.bytes_written::total            1600                       # Number of bytes written to this memory
system.mem_ctrls.num_reads::cpu00.inst            595                       # Number of read requests responded to by this memory
system.mem_ctrls.num_reads::cpu00.data            443                       # Number of read requests responded to by this memory
system.mem_ctrls.num_reads::cpu01.inst             52                       # Number of read requests responded to by this memory
system.mem_ctrls.num_reads::cpu01.data             18                       # Number of read requests responded to by this memory
system.mem_ctrls.num_reads::cpu02.inst             51                       # Number of read requests responded to by this memory
system.mem_ctrls.num_reads::cpu02.data             17                       # Number of read requests responded to by this memory
system.mem_ctrls.num_reads::cpu03.inst             51                       # Number of read requests responded to by this memory
system.mem_ctrls.num_reads::cpu03.data             17                       # Number of read requests responded to by this memory
system.mem_ctrls.num_reads::cpu04.inst             51                       # Number of read requests responded to by this memory
system.mem_ctrls.num_reads::cpu04.data             17                       # Number of read requests responded to by this memory
system.mem_ctrls.num_reads::cpu05.inst             52                       # Number of read requests responded to by this memory
system.mem_ctrls.num_reads::cpu05.data             19                       # Number of read requests responded to by this memory
system.mem_ctrls.num_reads::cpu06.inst             51                       # Number of read requests responded to by this memory
system.mem_ctrls.num_reads::cpu06.data             17                       # Number of read requests responded to by this memory
system.mem_ctrls.num_reads::cpu07.inst             53                       # Number of read requests responded to by this memory
system.mem_ctrls.num_reads::cpu07.data             18                       # Number of read requests responded to by this memory
system.mem_ctrls.num_reads::cpu08.inst             53                       # Number of read requests responded to by this memory
system.mem_ctrls.num_reads::cpu08.data             18                       # Number of read requests responded to by this memory
system.mem_ctrls.num_reads::cpu09.inst             52                       # Number of read requests responded to by this memory
system.mem_ctrls.num_reads::cpu09.data             18                       # Number of read requests responded to by this memory
system.mem_ctrls.num_reads::cpu10.inst             53                       # Number of read requests responded to by this memory
system.mem_ctrls.num_reads::cpu10.data             18                       # Number of read requests responded to by this memory
system.mem_ctrls.num_reads::cpu11.inst             55                       # Number of read requests responded to by this memory
system.mem_ctrls.num_reads::cpu11.data             18                       # Number of read requests responded to by this memory
system.mem_ctrls.num_reads::cpu12.inst             52                       # Number of read requests responded to by this memory
system.mem_ctrls.num_reads::cpu12.data             18                       # Number of read requests responded to by this memory
system.mem_ctrls.num_reads::cpu13.inst             53                       # Number of read requests responded to by this memory
system.mem_ctrls.num_reads::cpu13.data             18                       # Number of read requests responded to by this memory
system.mem_ctrls.num_reads::cpu14.inst             52                       # Number of read requests responded to by this memory
system.mem_ctrls.num_reads::cpu14.data             18                       # Number of read requests responded to by this memory
system.mem_ctrls.num_reads::cpu15.inst             50                       # Number of read requests responded to by this memory
system.mem_ctrls.num_reads::cpu15.data             18                       # Number of read requests responded to by this memory
system.mem_ctrls.num_reads::total                2086                       # Number of read requests responded to by this memory
system.mem_ctrls.num_writes::writebacks            25                       # Number of write requests responded to by this memory
system.mem_ctrls.num_writes::total                 25                       # Number of write requests responded to by this memory
system.mem_ctrls.bw_read::cpu00.inst        846805577                       # Total read bandwidth from this memory (bytes/s)
system.mem_ctrls.bw_read::cpu00.data        630478774                       # Total read bandwidth from this memory (bytes/s)
system.mem_ctrls.bw_read::cpu01.inst         74006538                       # Total read bandwidth from this memory (bytes/s)
system.mem_ctrls.bw_read::cpu01.data         25617648                       # Total read bandwidth from this memory (bytes/s)
system.mem_ctrls.bw_read::cpu02.inst         72583335                       # Total read bandwidth from this memory (bytes/s)
system.mem_ctrls.bw_read::cpu02.data         24194445                       # Total read bandwidth from this memory (bytes/s)
system.mem_ctrls.bw_read::cpu03.inst         72583335                       # Total read bandwidth from this memory (bytes/s)
system.mem_ctrls.bw_read::cpu03.data         24194445                       # Total read bandwidth from this memory (bytes/s)
system.mem_ctrls.bw_read::cpu04.inst         72583335                       # Total read bandwidth from this memory (bytes/s)
system.mem_ctrls.bw_read::cpu04.data         24194445                       # Total read bandwidth from this memory (bytes/s)
system.mem_ctrls.bw_read::cpu05.inst         74006538                       # Total read bandwidth from this memory (bytes/s)
system.mem_ctrls.bw_read::cpu05.data         27040850                       # Total read bandwidth from this memory (bytes/s)
system.mem_ctrls.bw_read::cpu06.inst         72583335                       # Total read bandwidth from this memory (bytes/s)
system.mem_ctrls.bw_read::cpu06.data         24194445                       # Total read bandwidth from this memory (bytes/s)
system.mem_ctrls.bw_read::cpu07.inst         75429740                       # Total read bandwidth from this memory (bytes/s)
system.mem_ctrls.bw_read::cpu07.data         25617648                       # Total read bandwidth from this memory (bytes/s)
system.mem_ctrls.bw_read::cpu08.inst         75429740                       # Total read bandwidth from this memory (bytes/s)
system.mem_ctrls.bw_read::cpu08.data         25617648                       # Total read bandwidth from this memory (bytes/s)
system.mem_ctrls.bw_read::cpu09.inst         74006538                       # Total read bandwidth from this memory (bytes/s)
system.mem_ctrls.bw_read::cpu09.data         25617648                       # Total read bandwidth from this memory (bytes/s)
system.mem_ctrls.bw_read::cpu10.inst         75429740                       # Total read bandwidth from this memory (bytes/s)
system.mem_ctrls.bw_read::cpu10.data         25617648                       # Total read bandwidth from this memory (bytes/s)
system.mem_ctrls.bw_read::cpu11.inst         78276146                       # Total read bandwidth from this memory (bytes/s)
system.mem_ctrls.bw_read::cpu11.data         25617648                       # Total read bandwidth from this memory (bytes/s)
system.mem_ctrls.bw_read::cpu12.inst         74006538                       # Total read bandwidth from this memory (bytes/s)
system.mem_ctrls.bw_read::cpu12.data         25617648                       # Total read bandwidth from this memory (bytes/s)
system.mem_ctrls.bw_read::cpu13.inst         75429740                       # Total read bandwidth from this memory (bytes/s)
system.mem_ctrls.bw_read::cpu13.data         25617648                       # Total read bandwidth from this memory (bytes/s)
system.mem_ctrls.bw_read::cpu14.inst         74006538                       # Total read bandwidth from this memory (bytes/s)
system.mem_ctrls.bw_read::cpu14.data         25617648                       # Total read bandwidth from this memory (bytes/s)
system.mem_ctrls.bw_read::cpu15.inst         71160133                       # Total read bandwidth from this memory (bytes/s)
system.mem_ctrls.bw_read::cpu15.data         25617648                       # Total read bandwidth from this memory (bytes/s)
system.mem_ctrls.bw_read::total            2968800729                       # Total read bandwidth from this memory (bytes/s)
system.mem_ctrls.bw_inst_read::cpu00.inst    846805577                       # Instruction read bandwidth from this memory (bytes/s)
system.mem_ctrls.bw_inst_read::cpu01.inst     74006538                       # Instruction read bandwidth from this memory (bytes/s)
system.mem_ctrls.bw_inst_read::cpu02.inst     72583335                       # Instruction read bandwidth from this memory (bytes/s)
system.mem_ctrls.bw_inst_read::cpu03.inst     72583335                       # Instruction read bandwidth from this memory (bytes/s)
system.mem_ctrls.bw_inst_read::cpu04.inst     72583335                       # Instruction read bandwidth from this memory (bytes/s)
system.mem_ctrls.bw_inst_read::cpu05.inst     74006538                       # Instruction read bandwidth from this memory (bytes/s)
system.mem_ctrls.bw_inst_read::cpu06.inst     72583335                       # Instruction read bandwidth from this memory (bytes/s)
system.mem_ctrls.bw_inst_read::cpu07.inst     75429740                       # Instruction read bandwidth from this memory (bytes/s)
system.mem_ctrls.bw_inst_read::cpu08.inst     75429740                       # Instruction read bandwidth from this memory (bytes/s)
system.mem_ctrls.bw_inst_read::cpu09.inst     74006538                       # Instruction read bandwidth from this memory (bytes/s)
system.mem_ctrls.bw_inst_read::cpu10.inst     75429740                       # Instruction read bandwidth from this memory (bytes/s)
system.mem_ctrls.bw_inst_read::cpu11.inst     78276146                       # Instruction read bandwidth from this memory (bytes/s)
system.mem_ctrls.bw_inst_read::cpu12.inst     74006538                       # Instruction read bandwidth from this memory (bytes/s)
system.mem_ctrls.bw_inst_read::cpu13.inst     75429740                       # Instruction read bandwidth from this memory (bytes/s)
system.mem_ctrls.bw_inst_read::cpu14.inst     74006538                       # Instruction read bandwidth from this memory (bytes/s)
system.mem_ctrls.bw_inst_read::cpu15.inst     71160133                       # Instruction read bandwidth from this memory (bytes/s)
system.mem_ctrls.bw_inst_read::total       1958326847                       # Instruction read bandwidth from this memory (bytes/s)
system.mem_ctrls.bw_write::writebacks        35580066                       # Write bandwidth from this memory (bytes/s)
system.mem_ctrls.bw_write::total             35580066                       # Write bandwidth from this memory (bytes/s)
system.mem_ctrls.bw_total::writebacks        35580066                       # Total bandwidth to/from this memory (bytes/s)
system.mem_ctrls.bw_total::cpu00.inst       846805577                       # Total bandwidth to/from this memory (bytes/s)
system.mem_ctrls.bw_total::cpu00.data       630478774                       # Total bandwidth to/from this memory (bytes/s)
system.mem_ctrls.bw_total::cpu01.inst        74006538                       # Total bandwidth to/from this memory (bytes/s)
system.mem_ctrls.bw_total::cpu01.data        25617648                       # Total bandwidth to/from this memory (bytes/s)
system.mem_ctrls.bw_total::cpu02.inst        72583335                       # Total bandwidth to/from this memory (bytes/s)
system.mem_ctrls.bw_total::cpu02.data        24194445                       # Total bandwidth to/from this memory (bytes/s)
system.mem_ctrls.bw_total::cpu03.inst        72583335                       # Total bandwidth to/from this memory (bytes/s)
system.mem_ctrls.bw_total::cpu03.data        24194445                       # Total bandwidth to/from this memory (bytes/s)
system.mem_ctrls.bw_total::cpu04.inst        72583335                       # Total bandwidth to/from this memory (bytes/s)
system.mem_ctrls.bw_total::cpu04.data        24194445                       # Total bandwidth to/from this memory (bytes/s)
system.mem_ctrls.bw_total::cpu05.inst        74006538                       # Total bandwidth to/from this memory (bytes/s)
system.mem_ctrls.bw_total::cpu05.data        27040850                       # Total bandwidth to/from this memory (bytes/s)
system.mem_ctrls.bw_total::cpu06.inst        72583335                       # Total bandwidth to/from this memory (bytes/s)
system.mem_ctrls.bw_total::cpu06.data        24194445                       # Total bandwidth to/from this memory (bytes/s)
system.mem_ctrls.bw_total::cpu07.inst        75429740                       # Total bandwidth to/from this memory (bytes/s)
system.mem_ctrls.bw_total::cpu07.data        25617648                       # Total bandwidth to/from this memory (bytes/s)
system.mem_ctrls.bw_total::cpu08.inst        75429740                       # Total bandwidth to/from this memory (bytes/s)
system.mem_ctrls.bw_total::cpu08.data        25617648                       # Total bandwidth to/from this memory (bytes/s)
system.mem_ctrls.bw_total::cpu09.inst        74006538                       # Total bandwidth to/from this memory (bytes/s)
system.mem_ctrls.bw_total::cpu09.data        25617648                       # Total bandwidth to/from this memory (bytes/s)
system.mem_ctrls.bw_total::cpu10.inst        75429740                       # Total bandwidth to/from this memory (bytes/s)
system.mem_ctrls.bw_total::cpu10.data        25617648                       # Total bandwidth to/from this memory (bytes/s)
system.mem_ctrls.bw_total::cpu11.inst        78276146                       # Total bandwidth to/from this memory (bytes/s)
system.mem_ctrls.bw_total::cpu11.data        25617648                       # Total bandwidth to/from this memory (bytes/s)
system.mem_ctrls.bw_total::cpu12.inst        74006538                       # Total bandwidth to/from this memory (bytes/s)
system.mem_ctrls.bw_total::cpu12.data        25617648                       # Total bandwidth to/from this memory (bytes/s)
system.mem_ctrls.bw_total::cpu13.inst        75429740                       # Total bandwidth to/from this memory (bytes/s)
system.mem_ctrls.bw_total::cpu13.data        25617648                       # Total bandwidth to/from this memory (bytes/s)
system.mem_ctrls.bw_total::cpu14.inst        74006538                       # Total bandwidth to/from this memory (bytes/s)
system.mem_ctrls.bw_total::cpu14.data        25617648                       # Total bandwidth to/from this memory (bytes/s)
system.mem_ctrls.bw_total::cpu15.inst        71160133                       # Total bandwidth to/from this memory (bytes/s)
system.mem_ctrls.bw_total::cpu15.data        25617648                       # Total bandwidth to/from this memory (bytes/s)
system.mem_ctrls.bw_total::total           3004380796                       # Total bandwidth to/from this memory (bytes/s)
system.mem_ctrls.readReqs                        2087                       # Number of read requests accepted
system.mem_ctrls.writeReqs                         25                       # Number of write requests accepted
system.mem_ctrls.readBursts                      2087                       # Number of DRAM read bursts, including those serviced by the write queue
system.mem_ctrls.writeBursts                       25                       # Number of DRAM write bursts, including those merged in the write queue
system.mem_ctrls.bytesReadDRAM                 131200                       # Total number of bytes read from DRAM
system.mem_ctrls.bytesReadWrQ                    2368                       # Total number of bytes read from write queue
system.mem_ctrls.bytesWritten                       0                       # Total number of bytes written to DRAM
system.mem_ctrls.bytesReadSys                  133568                       # Total read bytes from the system interface side
system.mem_ctrls.bytesWrittenSys                 1600                       # Total written bytes from the system interface side
system.mem_ctrls.servicedByWrQ                     37                       # Number of DRAM read bursts serviced by the write queue
system.mem_ctrls.mergedWrBursts                     2                       # Number of DRAM write bursts merged with an existing one
system.mem_ctrls.neitherReadNorWriteReqs           21                       # Number of requests that are neither read nor write
system.mem_ctrls.perBankRdBursts::0               259                       # Per bank write bursts
system.mem_ctrls.perBankRdBursts::1               600                       # Per bank write bursts
system.mem_ctrls.perBankRdBursts::2               314                       # Per bank write bursts
system.mem_ctrls.perBankRdBursts::3               295                       # Per bank write bursts
system.mem_ctrls.perBankRdBursts::4               103                       # Per bank write bursts
system.mem_ctrls.perBankRdBursts::5                83                       # Per bank write bursts
system.mem_ctrls.perBankRdBursts::6               148                       # Per bank write bursts
system.mem_ctrls.perBankRdBursts::7                35                       # Per bank write bursts
system.mem_ctrls.perBankRdBursts::8                14                       # Per bank write bursts
system.mem_ctrls.perBankRdBursts::9                10                       # Per bank write bursts
system.mem_ctrls.perBankRdBursts::10                0                       # Per bank write bursts
system.mem_ctrls.perBankRdBursts::11               15                       # Per bank write bursts
system.mem_ctrls.perBankRdBursts::12                9                       # Per bank write bursts
system.mem_ctrls.perBankRdBursts::13               38                       # Per bank write bursts
system.mem_ctrls.perBankRdBursts::14               40                       # Per bank write bursts
system.mem_ctrls.perBankRdBursts::15               87                       # Per bank write bursts
system.mem_ctrls.perBankWrBursts::0                 0                       # Per bank write bursts
system.mem_ctrls.perBankWrBursts::1                 0                       # Per bank write bursts
system.mem_ctrls.perBankWrBursts::2                 0                       # Per bank write bursts
system.mem_ctrls.perBankWrBursts::3                 0                       # Per bank write bursts
system.mem_ctrls.perBankWrBursts::4                 0                       # Per bank write bursts
system.mem_ctrls.perBankWrBursts::5                 0                       # Per bank write bursts
system.mem_ctrls.perBankWrBursts::6                 0                       # Per bank write bursts
system.mem_ctrls.perBankWrBursts::7                 0                       # Per bank write bursts
system.mem_ctrls.perBankWrBursts::8                 0                       # Per bank write bursts
system.mem_ctrls.perBankWrBursts::9                 0                       # Per bank write bursts
system.mem_ctrls.perBankWrBursts::10                0                       # Per bank write bursts
system.mem_ctrls.perBankWrBursts::11                0                       # Per bank write bursts
system.mem_ctrls.perBankWrBursts::12                0                       # Per bank write bursts
system.mem_ctrls.perBankWrBursts::13                0                       # Per bank write bursts
system.mem_ctrls.perBankWrBursts::14                0                       # Per bank write bursts
system.mem_ctrls.perBankWrBursts::15                0                       # Per bank write bursts
system.mem_ctrls.numRdRetry                        27                       # Number of times read queue was full causing retry
system.mem_ctrls.numWrRetry                         0                       # Number of times write queue was full causing retry
system.mem_ctrls.totGap                      44961500                       # Total gap between requests
system.mem_ctrls.readPktSize::0                     0                       # Read request sizes (log2)
system.mem_ctrls.readPktSize::1                     0                       # Read request sizes (log2)
system.mem_ctrls.readPktSize::2                     0                       # Read request sizes (log2)
system.mem_ctrls.readPktSize::3                     0                       # Read request sizes (log2)
system.mem_ctrls.readPktSize::4                     0                       # Read request sizes (log2)
system.mem_ctrls.readPktSize::5                     0                       # Read request sizes (log2)
system.mem_ctrls.readPktSize::6                  2087                       # Read request sizes (log2)
system.mem_ctrls.writePktSize::0                    0                       # Write request sizes (log2)
system.mem_ctrls.writePktSize::1                    0                       # Write request sizes (log2)
system.mem_ctrls.writePktSize::2                    0                       # Write request sizes (log2)
system.mem_ctrls.writePktSize::3                    0                       # Write request sizes (log2)
system.mem_ctrls.writePktSize::4                    0                       # Write request sizes (log2)
system.mem_ctrls.writePktSize::5                    0                       # Write request sizes (log2)
system.mem_ctrls.writePktSize::6                   25                       # Write request sizes (log2)
system.mem_ctrls.rdQLenPdf::0                     553                       # What read queue length does an incoming req see
system.mem_ctrls.rdQLenPdf::1                     347                       # What read queue length does an incoming req see
system.mem_ctrls.rdQLenPdf::2                     127                       # What read queue length does an incoming req see
system.mem_ctrls.rdQLenPdf::3                      82                       # What read queue length does an incoming req see
system.mem_ctrls.rdQLenPdf::4                      60                       # What read queue length does an incoming req see
system.mem_ctrls.rdQLenPdf::5                      56                       # What read queue length does an incoming req see
system.mem_ctrls.rdQLenPdf::6                      47                       # What read queue length does an incoming req see
system.mem_ctrls.rdQLenPdf::7                      52                       # What read queue length does an incoming req see
system.mem_ctrls.rdQLenPdf::8                      73                       # What read queue length does an incoming req see
system.mem_ctrls.rdQLenPdf::9                      81                       # What read queue length does an incoming req see
system.mem_ctrls.rdQLenPdf::10                     74                       # What read queue length does an incoming req see
system.mem_ctrls.rdQLenPdf::11                     64                       # What read queue length does an incoming req see
system.mem_ctrls.rdQLenPdf::12                     70                       # What read queue length does an incoming req see
system.mem_ctrls.rdQLenPdf::13                     51                       # What read queue length does an incoming req see
system.mem_ctrls.rdQLenPdf::14                     34                       # What read queue length does an incoming req see
system.mem_ctrls.rdQLenPdf::15                     22                       # What read queue length does an incoming req see
system.mem_ctrls.rdQLenPdf::16                     20                       # What read queue length does an incoming req see
system.mem_ctrls.rdQLenPdf::17                     23                       # What read queue length does an incoming req see
system.mem_ctrls.rdQLenPdf::18                     19                       # What read queue length does an incoming req see
system.mem_ctrls.rdQLenPdf::19                     23                       # What read queue length does an incoming req see
system.mem_ctrls.rdQLenPdf::20                     28                       # What read queue length does an incoming req see
system.mem_ctrls.rdQLenPdf::21                     36                       # What read queue length does an incoming req see
system.mem_ctrls.rdQLenPdf::22                     12                       # What read queue length does an incoming req see
system.mem_ctrls.rdQLenPdf::23                     15                       # What read queue length does an incoming req see
system.mem_ctrls.rdQLenPdf::24                     10                       # What read queue length does an incoming req see
system.mem_ctrls.rdQLenPdf::25                      7                       # What read queue length does an incoming req see
system.mem_ctrls.rdQLenPdf::26                      8                       # What read queue length does an incoming req see
system.mem_ctrls.rdQLenPdf::27                      6                       # What read queue length does an incoming req see
system.mem_ctrls.rdQLenPdf::28                      8                       # What read queue length does an incoming req see
system.mem_ctrls.rdQLenPdf::29                      5                       # What read queue length does an incoming req see
system.mem_ctrls.rdQLenPdf::30                      5                       # What read queue length does an incoming req see
system.mem_ctrls.rdQLenPdf::31                     32                       # What read queue length does an incoming req see
system.mem_ctrls.wrQLenPdf::0                       1                       # What write queue length does an incoming req see
system.mem_ctrls.wrQLenPdf::1                       1                       # What write queue length does an incoming req see
system.mem_ctrls.wrQLenPdf::2                       1                       # What write queue length does an incoming req see
system.mem_ctrls.wrQLenPdf::3                       1                       # What write queue length does an incoming req see
system.mem_ctrls.wrQLenPdf::4                       1                       # What write queue length does an incoming req see
system.mem_ctrls.wrQLenPdf::5                       1                       # What write queue length does an incoming req see
system.mem_ctrls.wrQLenPdf::6                       1                       # What write queue length does an incoming req see
system.mem_ctrls.wrQLenPdf::7                       1                       # What write queue length does an incoming req see
system.mem_ctrls.wrQLenPdf::8                       1                       # What write queue length does an incoming req see
system.mem_ctrls.wrQLenPdf::9                       1                       # What write queue length does an incoming req see
system.mem_ctrls.wrQLenPdf::10                      1                       # What write queue length does an incoming req see
system.mem_ctrls.wrQLenPdf::11                      1                       # What write queue length does an incoming req see
system.mem_ctrls.wrQLenPdf::12                      1                       # What write queue length does an incoming req see
system.mem_ctrls.wrQLenPdf::13                      1                       # What write queue length does an incoming req see
system.mem_ctrls.wrQLenPdf::14                      1                       # What write queue length does an incoming req see
system.mem_ctrls.wrQLenPdf::15                      1                       # What write queue length does an incoming req see
system.mem_ctrls.wrQLenPdf::16                      1                       # What write queue length does an incoming req see
system.mem_ctrls.wrQLenPdf::17                      1                       # What write queue length does an incoming req see
system.mem_ctrls.wrQLenPdf::18                      1                       # What write queue length does an incoming req see
system.mem_ctrls.wrQLenPdf::19                      1                       # What write queue length does an incoming req see
system.mem_ctrls.wrQLenPdf::20                      1                       # What write queue length does an incoming req see
system.mem_ctrls.wrQLenPdf::21                      1                       # What write queue length does an incoming req see
system.mem_ctrls.wrQLenPdf::22                      1                       # What write queue length does an incoming req see
system.mem_ctrls.wrQLenPdf::23                      0                       # What write queue length does an incoming req see
system.mem_ctrls.wrQLenPdf::24                      0                       # What write queue length does an incoming req see
system.mem_ctrls.wrQLenPdf::25                      0                       # What write queue length does an incoming req see
system.mem_ctrls.wrQLenPdf::26                      0                       # What write queue length does an incoming req see
system.mem_ctrls.wrQLenPdf::27                      0                       # What write queue length does an incoming req see
system.mem_ctrls.wrQLenPdf::28                      0                       # What write queue length does an incoming req see
system.mem_ctrls.wrQLenPdf::29                      0                       # What write queue length does an incoming req see
system.mem_ctrls.wrQLenPdf::30                      0                       # What write queue length does an incoming req see
system.mem_ctrls.wrQLenPdf::31                      0                       # What write queue length does an incoming req see
system.mem_ctrls.wrQLenPdf::32                      0                       # What write queue length does an incoming req see
system.mem_ctrls.wrQLenPdf::33                      0                       # What write queue length does an incoming req see
system.mem_ctrls.wrQLenPdf::34                      0                       # What write queue length does an incoming req see
system.mem_ctrls.wrQLenPdf::35                      0                       # What write queue length does an incoming req see
system.mem_ctrls.wrQLenPdf::36                      0                       # What write queue length does an incoming req see
system.mem_ctrls.wrQLenPdf::37                      0                       # What write queue length does an incoming req see
system.mem_ctrls.wrQLenPdf::38                      0                       # What write queue length does an incoming req see
system.mem_ctrls.wrQLenPdf::39                      0                       # What write queue length does an incoming req see
system.mem_ctrls.wrQLenPdf::40                      0                       # What write queue length does an incoming req see
system.mem_ctrls.wrQLenPdf::41                      0                       # What write queue length does an incoming req see
system.mem_ctrls.wrQLenPdf::42                      0                       # What write queue length does an incoming req see
system.mem_ctrls.wrQLenPdf::43                      0                       # What write queue length does an incoming req see
system.mem_ctrls.wrQLenPdf::44                      0                       # What write queue length does an incoming req see
system.mem_ctrls.wrQLenPdf::45                      0                       # What write queue length does an incoming req see
system.mem_ctrls.wrQLenPdf::46                      0                       # What write queue length does an incoming req see
system.mem_ctrls.wrQLenPdf::47                      0                       # What write queue length does an incoming req see
system.mem_ctrls.wrQLenPdf::48                      0                       # What write queue length does an incoming req see
system.mem_ctrls.wrQLenPdf::49                      0                       # What write queue length does an incoming req see
system.mem_ctrls.wrQLenPdf::50                      0                       # What write queue length does an incoming req see
system.mem_ctrls.wrQLenPdf::51                      0                       # What write queue length does an incoming req see
system.mem_ctrls.wrQLenPdf::52                      0                       # What write queue length does an incoming req see
system.mem_ctrls.wrQLenPdf::53                      0                       # What write queue length does an incoming req see
system.mem_ctrls.wrQLenPdf::54                      0                       # What write queue length does an incoming req see
system.mem_ctrls.wrQLenPdf::55                      0                       # What write queue length does an incoming req see
system.mem_ctrls.wrQLenPdf::56                      0                       # What write queue length does an incoming req see
system.mem_ctrls.wrQLenPdf::57                      0                       # What write queue length does an incoming req see
system.mem_ctrls.wrQLenPdf::58                      0                       # What write queue length does an incoming req see
system.mem_ctrls.wrQLenPdf::59                      0                       # What write queue length does an incoming req see
system.mem_ctrls.wrQLenPdf::60                      0                       # What write queue length does an incoming req see
system.mem_ctrls.wrQLenPdf::61                      0                       # What write queue length does an incoming req see
system.mem_ctrls.wrQLenPdf::62                      0                       # What write queue length does an incoming req see
system.mem_ctrls.wrQLenPdf::63                      0                       # What write queue length does an incoming req see
system.mem_ctrls.bytesPerActivate::samples          394                       # Bytes accessed per row activation
system.mem_ctrls.bytesPerActivate::mean    325.685279                       # Bytes accessed per row activation
system.mem_ctrls.bytesPerActivate::gmean   175.567634                       # Bytes accessed per row activation
system.mem_ctrls.bytesPerActivate::stdev   357.721945                       # Bytes accessed per row activation
system.mem_ctrls.bytesPerActivate::0-127          187     47.46%     47.46% # Bytes accessed per row activation
system.mem_ctrls.bytesPerActivate::128-255           55     13.96%     61.42% # Bytes accessed per row activation
system.mem_ctrls.bytesPerActivate::256-383           29      7.36%     68.78% # Bytes accessed per row activation
system.mem_ctrls.bytesPerActivate::384-511           20      5.08%     73.86% # Bytes accessed per row activation
system.mem_ctrls.bytesPerActivate::512-639           16      4.06%     77.92% # Bytes accessed per row activation
system.mem_ctrls.bytesPerActivate::640-767           10      2.54%     80.46% # Bytes accessed per row activation
system.mem_ctrls.bytesPerActivate::768-895           13      3.30%     83.76% # Bytes accessed per row activation
system.mem_ctrls.bytesPerActivate::896-1023            5      1.27%     85.03% # Bytes accessed per row activation
system.mem_ctrls.bytesPerActivate::1024-1151           59     14.97%    100.00% # Bytes accessed per row activation
system.mem_ctrls.bytesPerActivate::total          394                       # Bytes accessed per row activation
system.mem_ctrls.totQLat                     84115250                       # Total ticks spent queuing
system.mem_ctrls.totMemAccLat               122552750                       # Total ticks spent from burst creation until serviced by the DRAM
system.mem_ctrls.totBusLat                   10250000                       # Total ticks spent in databus transfers
system.mem_ctrls.avgQLat                     41031.83                       # Average queueing delay per DRAM burst
system.mem_ctrls.avgBusLat                    5000.00                       # Average bus latency per DRAM burst
system.mem_ctrls.avgMemAccLat                59781.83                       # Average memory access latency per DRAM burst
system.mem_ctrls.avgRdBW                      2917.57                       # Average DRAM read bandwidth in MiByte/s
system.mem_ctrls.avgWrBW                         0.00                       # Average achieved write bandwidth in MiByte/s
system.mem_ctrls.avgRdBWSys                   2970.22                       # Average system read bandwidth in MiByte/s
system.mem_ctrls.avgWrBWSys                     35.58                       # Average system write bandwidth in MiByte/s
system.mem_ctrls.peakBW                      12800.00                       # Theoretical peak bandwidth in MiByte/s
system.mem_ctrls.busUtil                        22.79                       # Data bus utilization in percentage
system.mem_ctrls.busUtilRead                    22.79                       # Data bus utilization in percentage for reads
system.mem_ctrls.busUtilWrite                    0.00                       # Data bus utilization in percentage for writes
system.mem_ctrls.avgRdQLen                       3.79                       # Average read queue length when enqueuing
system.mem_ctrls.avgWrQLen                       6.01                       # Average write queue length when enqueuing
system.mem_ctrls.readRowHits                     1644                       # Number of row buffer hits during reads
system.mem_ctrls.writeRowHits                       0                       # Number of row buffer hits during writes
system.mem_ctrls.readRowHitRate                 80.20                       # Row buffer hit rate for reads
system.mem_ctrls.writeRowHitRate                 0.00                       # Row buffer hit rate for writes
system.mem_ctrls.avgGap                      21288.59                       # Average gap between requests
system.mem_ctrls.pageHitRate                    79.31                       # Row buffer hit rate, read and write combined
system.mem_ctrls_0.actEnergy                  2388960                       # Energy for activate commands per rank (pJ)
system.mem_ctrls_0.preEnergy                  1303500                       # Energy for precharge commands per rank (pJ)
system.mem_ctrls_0.readEnergy                11271000                       # Energy for read commands per rank (pJ)
system.mem_ctrls_0.writeEnergy                      0                       # Energy for write commands per rank (pJ)
system.mem_ctrls_0.refreshEnergy              2542800                       # Energy for refresh commands per rank (pJ)
system.mem_ctrls_0.actBackEnergy             26687970                       # Energy for active background per rank (pJ)
system.mem_ctrls_0.preBackEnergy               124500                       # Energy for precharge background per rank (pJ)
system.mem_ctrls_0.totalEnergy               44318730                       # Total energy per rank (pJ)
system.mem_ctrls_0.averagePower           1129.859273                       # Core power per rank (mW)
system.mem_ctrls_0.memoryStateTime::IDLE        28500                       # Time in different power states
system.mem_ctrls_0.memoryStateTime::REF       1300000                       # Time in different power states
system.mem_ctrls_0.memoryStateTime::PRE_PDN            0                       # Time in different power states
system.mem_ctrls_0.memoryStateTime::ACT      37909750                       # Time in different power states
system.mem_ctrls_0.memoryStateTime::ACT_PDN            0                       # Time in different power states
system.mem_ctrls_1.actEnergy                   196560                       # Energy for activate commands per rank (pJ)
system.mem_ctrls_1.preEnergy                   107250                       # Energy for precharge commands per rank (pJ)
system.mem_ctrls_1.readEnergy                 1193400                       # Energy for read commands per rank (pJ)
system.mem_ctrls_1.writeEnergy                      0                       # Energy for write commands per rank (pJ)
system.mem_ctrls_1.refreshEnergy              2542800                       # Energy for refresh commands per rank (pJ)
system.mem_ctrls_1.actBackEnergy             22970430                       # Energy for active background per rank (pJ)
system.mem_ctrls_1.preBackEnergy              3365250                       # Energy for precharge background per rank (pJ)
system.mem_ctrls_1.totalEnergy               30375690                       # Total energy per rank (pJ)
system.mem_ctrls_1.averagePower            775.063056                       # Core power per rank (mW)
system.mem_ctrls_1.memoryStateTime::IDLE      7808250                       # Time in different power states
system.mem_ctrls_1.memoryStateTime::REF       1300000                       # Time in different power states
system.mem_ctrls_1.memoryStateTime::PRE_PDN            0                       # Time in different power states
system.mem_ctrls_1.memoryStateTime::ACT      33242750                       # Time in different power states
system.mem_ctrls_1.memoryStateTime::ACT_PDN            0                       # Time in different power states
system.cpu00.branchPred.lookups                 10991                       # Number of BP lookups
system.cpu00.branchPred.condPredicted            8676                       # Number of conditional branches predicted
system.cpu00.branchPred.condIncorrect             977                       # Number of conditional branches incorrect
system.cpu00.branchPred.BTBLookups               7961                       # Number of BTB lookups
system.cpu00.branchPred.BTBHits                  4741                       # Number of BTB hits
system.cpu00.branchPred.BTBCorrect                  0                       # Number of correct BTB predictions (this stat may not work properly.
system.cpu00.branchPred.BTBHitPct           59.552820                       # BTB Hit Percentage
system.cpu00.branchPred.usedRAS                   940                       # Number of times the RAS was used to get a target.
system.cpu00.branchPred.RASInCorrect               15                       # Number of incorrect RAS predictions.
system.cpu_voltage_domain.voltage                   1                       # Voltage in Volts
system.cpu_clk_domain.clock                       500                       # Clock period in ticks
system.cpu00.dstage2_mmu.stage2_tlb.walker.walks            0                       # Table walker walks requested
system.cpu00.dstage2_mmu.stage2_tlb.walker.walkRequestOrigin_Requested::Data            0                       # Table walker requests started/completed, data/inst
system.cpu00.dstage2_mmu.stage2_tlb.walker.walkRequestOrigin_Requested::Inst            0                       # Table walker requests started/completed, data/inst
system.cpu00.dstage2_mmu.stage2_tlb.walker.walkRequestOrigin_Requested::total            0                       # Table walker requests started/completed, data/inst
system.cpu00.dstage2_mmu.stage2_tlb.walker.walkRequestOrigin_Completed::Data            0                       # Table walker requests started/completed, data/inst
system.cpu00.dstage2_mmu.stage2_tlb.walker.walkRequestOrigin_Completed::Inst            0                       # Table walker requests started/completed, data/inst
system.cpu00.dstage2_mmu.stage2_tlb.walker.walkRequestOrigin_Completed::total            0                       # Table walker requests started/completed, data/inst
system.cpu00.dstage2_mmu.stage2_tlb.walker.walkRequestOrigin::total            0                       # Table walker requests started/completed, data/inst
system.cpu00.dstage2_mmu.stage2_tlb.inst_hits            0                       # ITB inst hits
system.cpu00.dstage2_mmu.stage2_tlb.inst_misses            0                       # ITB inst misses
system.cpu00.dstage2_mmu.stage2_tlb.read_hits            0                       # DTB read hits
system.cpu00.dstage2_mmu.stage2_tlb.read_misses            0                       # DTB read misses
system.cpu00.dstage2_mmu.stage2_tlb.write_hits            0                       # DTB write hits
system.cpu00.dstage2_mmu.stage2_tlb.write_misses            0                       # DTB write misses
system.cpu00.dstage2_mmu.stage2_tlb.flush_tlb            0                       # Number of times complete TLB was flushed
system.cpu00.dstage2_mmu.stage2_tlb.flush_tlb_mva            0                       # Number of times TLB was flushed by MVA
system.cpu00.dstage2_mmu.stage2_tlb.flush_tlb_mva_asid            0                       # Number of times TLB was flushed by MVA & ASID
system.cpu00.dstage2_mmu.stage2_tlb.flush_tlb_asid            0                       # Number of times TLB was flushed by ASID
system.cpu00.dstage2_mmu.stage2_tlb.flush_entries            0                       # Number of entries that have been flushed from TLB
system.cpu00.dstage2_mmu.stage2_tlb.align_faults            0                       # Number of TLB faults due to alignment restrictions
system.cpu00.dstage2_mmu.stage2_tlb.prefetch_faults            0                       # Number of TLB faults due to prefetch
system.cpu00.dstage2_mmu.stage2_tlb.domain_faults            0                       # Number of TLB faults due to domain restrictions
system.cpu00.dstage2_mmu.stage2_tlb.perms_faults            0                       # Number of TLB faults due to permissions restrictions
system.cpu00.dstage2_mmu.stage2_tlb.read_accesses            0                       # DTB read accesses
system.cpu00.dstage2_mmu.stage2_tlb.write_accesses            0                       # DTB write accesses
system.cpu00.dstage2_mmu.stage2_tlb.inst_accesses            0                       # ITB inst accesses
system.cpu00.dstage2_mmu.stage2_tlb.hits            0                       # DTB hits
system.cpu00.dstage2_mmu.stage2_tlb.misses            0                       # DTB misses
system.cpu00.dstage2_mmu.stage2_tlb.accesses            0                       # DTB accesses
system.cpu00.dtb.walker.walks                       0                       # Table walker walks requested
system.cpu00.dtb.walker.walkRequestOrigin_Requested::Data            0                       # Table walker requests started/completed, data/inst
system.cpu00.dtb.walker.walkRequestOrigin_Requested::Inst            0                       # Table walker requests started/completed, data/inst
system.cpu00.dtb.walker.walkRequestOrigin_Requested::total            0                       # Table walker requests started/completed, data/inst
system.cpu00.dtb.walker.walkRequestOrigin_Completed::Data            0                       # Table walker requests started/completed, data/inst
system.cpu00.dtb.walker.walkRequestOrigin_Completed::Inst            0                       # Table walker requests started/completed, data/inst
system.cpu00.dtb.walker.walkRequestOrigin_Completed::total            0                       # Table walker requests started/completed, data/inst
system.cpu00.dtb.walker.walkRequestOrigin::total            0                       # Table walker requests started/completed, data/inst
system.cpu00.dtb.inst_hits                          0                       # ITB inst hits
system.cpu00.dtb.inst_misses                        0                       # ITB inst misses
system.cpu00.dtb.read_hits                          0                       # DTB read hits
system.cpu00.dtb.read_misses                        0                       # DTB read misses
system.cpu00.dtb.write_hits                         0                       # DTB write hits
system.cpu00.dtb.write_misses                       0                       # DTB write misses
system.cpu00.dtb.flush_tlb                          0                       # Number of times complete TLB was flushed
system.cpu00.dtb.flush_tlb_mva                      0                       # Number of times TLB was flushed by MVA
system.cpu00.dtb.flush_tlb_mva_asid                 0                       # Number of times TLB was flushed by MVA & ASID
system.cpu00.dtb.flush_tlb_asid                     0                       # Number of times TLB was flushed by ASID
system.cpu00.dtb.flush_entries                      0                       # Number of entries that have been flushed from TLB
system.cpu00.dtb.align_faults                       0                       # Number of TLB faults due to alignment restrictions
system.cpu00.dtb.prefetch_faults                    0                       # Number of TLB faults due to prefetch
system.cpu00.dtb.domain_faults                      0                       # Number of TLB faults due to domain restrictions
system.cpu00.dtb.perms_faults                       0                       # Number of TLB faults due to permissions restrictions
system.cpu00.dtb.read_accesses                      0                       # DTB read accesses
system.cpu00.dtb.write_accesses                     0                       # DTB write accesses
system.cpu00.dtb.inst_accesses                      0                       # ITB inst accesses
system.cpu00.dtb.hits                               0                       # DTB hits
system.cpu00.dtb.misses                             0                       # DTB misses
system.cpu00.dtb.accesses                           0                       # DTB accesses
system.cpu00.istage2_mmu.stage2_tlb.walker.walks            0                       # Table walker walks requested
system.cpu00.istage2_mmu.stage2_tlb.walker.walkRequestOrigin_Requested::Data            0                       # Table walker requests started/completed, data/inst
system.cpu00.istage2_mmu.stage2_tlb.walker.walkRequestOrigin_Requested::Inst            0                       # Table walker requests started/completed, data/inst
system.cpu00.istage2_mmu.stage2_tlb.walker.walkRequestOrigin_Requested::total            0                       # Table walker requests started/completed, data/inst
system.cpu00.istage2_mmu.stage2_tlb.walker.walkRequestOrigin_Completed::Data            0                       # Table walker requests started/completed, data/inst
system.cpu00.istage2_mmu.stage2_tlb.walker.walkRequestOrigin_Completed::Inst            0                       # Table walker requests started/completed, data/inst
system.cpu00.istage2_mmu.stage2_tlb.walker.walkRequestOrigin_Completed::total            0                       # Table walker requests started/completed, data/inst
system.cpu00.istage2_mmu.stage2_tlb.walker.walkRequestOrigin::total            0                       # Table walker requests started/completed, data/inst
system.cpu00.istage2_mmu.stage2_tlb.inst_hits            0                       # ITB inst hits
system.cpu00.istage2_mmu.stage2_tlb.inst_misses            0                       # ITB inst misses
system.cpu00.istage2_mmu.stage2_tlb.read_hits            0                       # DTB read hits
system.cpu00.istage2_mmu.stage2_tlb.read_misses            0                       # DTB read misses
system.cpu00.istage2_mmu.stage2_tlb.write_hits            0                       # DTB write hits
system.cpu00.istage2_mmu.stage2_tlb.write_misses            0                       # DTB write misses
system.cpu00.istage2_mmu.stage2_tlb.flush_tlb            0                       # Number of times complete TLB was flushed
system.cpu00.istage2_mmu.stage2_tlb.flush_tlb_mva            0                       # Number of times TLB was flushed by MVA
system.cpu00.istage2_mmu.stage2_tlb.flush_tlb_mva_asid            0                       # Number of times TLB was flushed by MVA & ASID
system.cpu00.istage2_mmu.stage2_tlb.flush_tlb_asid            0                       # Number of times TLB was flushed by ASID
system.cpu00.istage2_mmu.stage2_tlb.flush_entries            0                       # Number of entries that have been flushed from TLB
system.cpu00.istage2_mmu.stage2_tlb.align_faults            0                       # Number of TLB faults due to alignment restrictions
system.cpu00.istage2_mmu.stage2_tlb.prefetch_faults            0                       # Number of TLB faults due to prefetch
system.cpu00.istage2_mmu.stage2_tlb.domain_faults            0                       # Number of TLB faults due to domain restrictions
system.cpu00.istage2_mmu.stage2_tlb.perms_faults            0                       # Number of TLB faults due to permissions restrictions
system.cpu00.istage2_mmu.stage2_tlb.read_accesses            0                       # DTB read accesses
system.cpu00.istage2_mmu.stage2_tlb.write_accesses            0                       # DTB write accesses
system.cpu00.istage2_mmu.stage2_tlb.inst_accesses            0                       # ITB inst accesses
system.cpu00.istage2_mmu.stage2_tlb.hits            0                       # DTB hits
system.cpu00.istage2_mmu.stage2_tlb.misses            0                       # DTB misses
system.cpu00.istage2_mmu.stage2_tlb.accesses            0                       # DTB accesses
system.cpu00.itb.walker.walks                       0                       # Table walker walks requested
system.cpu00.itb.walker.walkRequestOrigin_Requested::Data            0                       # Table walker requests started/completed, data/inst
system.cpu00.itb.walker.walkRequestOrigin_Requested::Inst            0                       # Table walker requests started/completed, data/inst
system.cpu00.itb.walker.walkRequestOrigin_Requested::total            0                       # Table walker requests started/completed, data/inst
system.cpu00.itb.walker.walkRequestOrigin_Completed::Data            0                       # Table walker requests started/completed, data/inst
system.cpu00.itb.walker.walkRequestOrigin_Completed::Inst            0                       # Table walker requests started/completed, data/inst
system.cpu00.itb.walker.walkRequestOrigin_Completed::total            0                       # Table walker requests started/completed, data/inst
system.cpu00.itb.walker.walkRequestOrigin::total            0                       # Table walker requests started/completed, data/inst
system.cpu00.itb.inst_hits                          0                       # ITB inst hits
system.cpu00.itb.inst_misses                        0                       # ITB inst misses
system.cpu00.itb.read_hits                          0                       # DTB read hits
system.cpu00.itb.read_misses                        0                       # DTB read misses
system.cpu00.itb.write_hits                         0                       # DTB write hits
system.cpu00.itb.write_misses                       0                       # DTB write misses
system.cpu00.itb.flush_tlb                          0                       # Number of times complete TLB was flushed
system.cpu00.itb.flush_tlb_mva                      0                       # Number of times TLB was flushed by MVA
system.cpu00.itb.flush_tlb_mva_asid                 0                       # Number of times TLB was flushed by MVA & ASID
system.cpu00.itb.flush_tlb_asid                     0                       # Number of times TLB was flushed by ASID
system.cpu00.itb.flush_entries                      0                       # Number of entries that have been flushed from TLB
system.cpu00.itb.align_faults                       0                       # Number of TLB faults due to alignment restrictions
system.cpu00.itb.prefetch_faults                    0                       # Number of TLB faults due to prefetch
system.cpu00.itb.domain_faults                      0                       # Number of TLB faults due to domain restrictions
system.cpu00.itb.perms_faults                       0                       # Number of TLB faults due to permissions restrictions
system.cpu00.itb.read_accesses                      0                       # DTB read accesses
system.cpu00.itb.write_accesses                     0                       # DTB write accesses
system.cpu00.itb.inst_accesses                      0                       # ITB inst accesses
system.cpu00.itb.hits                               0                       # DTB hits
system.cpu00.itb.misses                             0                       # DTB misses
system.cpu00.itb.accesses                           0                       # DTB accesses
system.cpu00.workload.num_syscalls                512                       # Number of system calls
system.cpu00.numCycles                          89939                       # number of cpu cycles simulated
system.cpu00.numWorkItemsStarted                    0                       # number of work items this cpu started
system.cpu00.numWorkItemsCompleted                  0                       # number of work items this cpu completed
system.cpu00.fetch.icacheStallCycles            19509                       # Number of cycles fetch is stalled on an Icache miss
system.cpu00.fetch.Insts                        60437                       # Number of instructions fetch has processed
system.cpu00.fetch.Branches                     10991                       # Number of branches that fetch encountered
system.cpu00.fetch.predictedBranches             5681                       # Number of branches that fetch has predicted taken
system.cpu00.fetch.Cycles                       33323                       # Number of cycles fetch has run and was not squashing or blocked
system.cpu00.fetch.SquashCycles                  2129                       # Number of cycles fetch has spent squashing
system.cpu00.fetch.MiscStallCycles                  1                       # Number of cycles fetch has spent waiting on interrupts, or bad addresses, or out of MSHRs
system.cpu00.fetch.PendingTrapStallCycles            1                       # Number of stall cycles due to pending traps
system.cpu00.fetch.CacheLines                    6604                       # Number of cache lines fetched
system.cpu00.fetch.IcacheSquashes                 620                       # Number of outstanding Icache misses that were squashed
system.cpu00.fetch.rateDist::samples            53898                       # Number of instructions fetched each cycle (Total)
system.cpu00.fetch.rateDist::mean            1.297581                       # Number of instructions fetched each cycle (Total)
system.cpu00.fetch.rateDist::stdev           2.704082                       # Number of instructions fetched each cycle (Total)
system.cpu00.fetch.rateDist::underflows             0      0.00%      0.00% # Number of instructions fetched each cycle (Total)
system.cpu00.fetch.rateDist::0                  41980     77.89%     77.89% # Number of instructions fetched each cycle (Total)
system.cpu00.fetch.rateDist::1                    859      1.59%     79.48% # Number of instructions fetched each cycle (Total)
system.cpu00.fetch.rateDist::2                   1234      2.29%     81.77% # Number of instructions fetched each cycle (Total)
system.cpu00.fetch.rateDist::3                    702      1.30%     83.07% # Number of instructions fetched each cycle (Total)
system.cpu00.fetch.rateDist::4                    882      1.64%     84.71% # Number of instructions fetched each cycle (Total)
system.cpu00.fetch.rateDist::5                    578      1.07%     85.78% # Number of instructions fetched each cycle (Total)
system.cpu00.fetch.rateDist::6                   1005      1.86%     87.65% # Number of instructions fetched each cycle (Total)
system.cpu00.fetch.rateDist::7                   1208      2.24%     89.89% # Number of instructions fetched each cycle (Total)
system.cpu00.fetch.rateDist::8                   5450     10.11%    100.00% # Number of instructions fetched each cycle (Total)
system.cpu00.fetch.rateDist::overflows              0      0.00%    100.00% # Number of instructions fetched each cycle (Total)
system.cpu00.fetch.rateDist::min_value              0                       # Number of instructions fetched each cycle (Total)
system.cpu00.fetch.rateDist::max_value              8                       # Number of instructions fetched each cycle (Total)
system.cpu00.fetch.rateDist::total              53898                       # Number of instructions fetched each cycle (Total)
system.cpu00.fetch.branchRate                0.122205                       # Number of branch fetches per cycle
system.cpu00.fetch.rate                      0.671978                       # Number of inst fetches per cycle
system.cpu00.decode.IdleCycles                  16032                       # Number of cycles decode is idle
system.cpu00.decode.BlockedCycles               27167                       # Number of cycles decode is blocked
system.cpu00.decode.RunCycles                    8360                       # Number of cycles decode is running
system.cpu00.decode.UnblockCycles                1578                       # Number of cycles decode is unblocking
system.cpu00.decode.SquashCycles                  761                       # Number of cycles decode is squashing
system.cpu00.decode.BranchResolved                968                       # Number of times decode resolved a branch
system.cpu00.decode.BranchMispred                 314                       # Number of times decode detected a branch misprediction
system.cpu00.decode.DecodedInsts                61305                       # Number of instructions handled by decode
system.cpu00.decode.SquashedInsts                1145                       # Number of squashed instructions handled by decode
system.cpu00.rename.SquashCycles                  761                       # Number of cycles rename is squashing
system.cpu00.rename.IdleCycles                  16954                       # Number of cycles rename is idle
system.cpu00.rename.BlockCycles                  3066                       # Number of cycles rename is blocking
system.cpu00.rename.serializeStallCycles        13164                       # count of cycles rename stalled for serializing inst
system.cpu00.rename.RunCycles                    8962                       # Number of cycles rename is running
system.cpu00.rename.UnblockCycles               10991                       # Number of cycles rename is unblocking
system.cpu00.rename.RenamedInsts                59161                       # Number of instructions processed by rename
system.cpu00.rename.ROBFullEvents                   8                       # Number of times rename has blocked due to ROB full
system.cpu00.rename.IQFullEvents                  754                       # Number of times rename has blocked due to IQ full
system.cpu00.rename.LQFullEvents                   88                       # Number of times rename has blocked due to LQ full
system.cpu00.rename.SQFullEvents                 9723                       # Number of times rename has blocked due to SQ full
system.cpu00.rename.RenamedOperands             69707                       # Number of destination operands rename has renamed
system.cpu00.rename.RenameLookups              282033                       # Number of register rename lookups that rename has made
system.cpu00.rename.int_rename_lookups          77385                       # Number of integer rename lookups
system.cpu00.rename.fp_rename_lookups              22                       # Number of floating rename lookups
system.cpu00.rename.CommittedMaps               49805                       # Number of HB maps that are committed
system.cpu00.rename.UndoneMaps                  19902                       # Number of HB maps that are undone due to squashing
system.cpu00.rename.serializingInsts              158                       # count of serializing insts renamed
system.cpu00.rename.tempSerializingInsts          157                       # count of temporary serializing insts renamed
system.cpu00.rename.skidInsts                    6459                       # count of insts added to the skid buffer
system.cpu00.memDep0.insertedLoads               8332                       # Number of loads inserted to the mem dependence unit.
system.cpu00.memDep0.insertedStores              8675                       # Number of stores inserted to the mem dependence unit.
system.cpu00.memDep0.conflictingLoads             602                       # Number of conflicting loads.
system.cpu00.memDep0.conflictingStores            568                       # Number of conflicting stores.
system.cpu00.iq.iqInstsAdded                    55882                       # Number of instructions added to the IQ (excludes non-spec)
system.cpu00.iq.iqNonSpecInstsAdded               303                       # Number of non-speculative instructions added to the IQ
system.cpu00.iq.iqInstsIssued                   48400                       # Number of instructions issued
system.cpu00.iq.iqSquashedInstsIssued             560                       # Number of squashed instructions issued
system.cpu00.iq.iqSquashedInstsExamined         14505                       # Number of squashed instructions iterated over during squash; mainly for profiling
system.cpu00.iq.iqSquashedOperandsExamined        42520                       # Number of squashed operands that are examined and possibly removed from graph
system.cpu00.iq.iqSquashedNonSpecRemoved           75                       # Number of squashed non-spec instructions that were removed
system.cpu00.iq.issued_per_cycle::samples        53898                       # Number of insts issued each cycle
system.cpu00.iq.issued_per_cycle::mean       0.897993                       # Number of insts issued each cycle
system.cpu00.iq.issued_per_cycle::stdev      1.509488                       # Number of insts issued each cycle
system.cpu00.iq.issued_per_cycle::underflows            0      0.00%      0.00% # Number of insts issued each cycle
system.cpu00.iq.issued_per_cycle::0             37275     69.16%     69.16% # Number of insts issued each cycle
system.cpu00.iq.issued_per_cycle::1              3741      6.94%     76.10% # Number of insts issued each cycle
system.cpu00.iq.issued_per_cycle::2              2250      4.17%     80.27% # Number of insts issued each cycle
system.cpu00.iq.issued_per_cycle::3              2369      4.40%     84.67% # Number of insts issued each cycle
system.cpu00.iq.issued_per_cycle::4              8263     15.33%    100.00% # Number of insts issued each cycle
system.cpu00.iq.issued_per_cycle::overflows            0      0.00%    100.00% # Number of insts issued each cycle
system.cpu00.iq.issued_per_cycle::min_value            0                       # Number of insts issued each cycle
system.cpu00.iq.issued_per_cycle::max_value            4                       # Number of insts issued each cycle
system.cpu00.iq.issued_per_cycle::total         53898                       # Number of insts issued each cycle
system.cpu00.iq.fu_full::No_OpClass                 0      0.00%      0.00% # attempts to use FU when none available
system.cpu00.iq.fu_full::IntAlu                     0      0.00%      0.00% # attempts to use FU when none available
system.cpu00.iq.fu_full::IntMult                    1    100.00%    100.00% # attempts to use FU when none available
system.cpu00.iq.fu_full::IntDiv                     0      0.00%    100.00% # attempts to use FU when none available
system.cpu00.iq.fu_full::FloatAdd                   0      0.00%    100.00% # attempts to use FU when none available
system.cpu00.iq.fu_full::FloatCmp                   0      0.00%    100.00% # attempts to use FU when none available
system.cpu00.iq.fu_full::FloatCvt                   0      0.00%    100.00% # attempts to use FU when none available
system.cpu00.iq.fu_full::FloatMult                  0      0.00%    100.00% # attempts to use FU when none available
system.cpu00.iq.fu_full::FloatDiv                   0      0.00%    100.00% # attempts to use FU when none available
system.cpu00.iq.fu_full::FloatSqrt                  0      0.00%    100.00% # attempts to use FU when none available
system.cpu00.iq.fu_full::SimdAdd                    0      0.00%    100.00% # attempts to use FU when none available
system.cpu00.iq.fu_full::SimdAddAcc                 0      0.00%    100.00% # attempts to use FU when none available
system.cpu00.iq.fu_full::SimdAlu                    0      0.00%    100.00% # attempts to use FU when none available
system.cpu00.iq.fu_full::SimdCmp                    0      0.00%    100.00% # attempts to use FU when none available
system.cpu00.iq.fu_full::SimdCvt                    0      0.00%    100.00% # attempts to use FU when none available
system.cpu00.iq.fu_full::SimdMisc                   0      0.00%    100.00% # attempts to use FU when none available
system.cpu00.iq.fu_full::SimdMult                   0      0.00%    100.00% # attempts to use FU when none available
system.cpu00.iq.fu_full::SimdMultAcc                0      0.00%    100.00% # attempts to use FU when none available
system.cpu00.iq.fu_full::SimdShift                  0      0.00%    100.00% # attempts to use FU when none available
system.cpu00.iq.fu_full::SimdShiftAcc               0      0.00%    100.00% # attempts to use FU when none available
system.cpu00.iq.fu_full::SimdSqrt                   0      0.00%    100.00% # attempts to use FU when none available
system.cpu00.iq.fu_full::SimdFloatAdd               0      0.00%    100.00% # attempts to use FU when none available
system.cpu00.iq.fu_full::SimdFloatAlu               0      0.00%    100.00% # attempts to use FU when none available
system.cpu00.iq.fu_full::SimdFloatCmp               0      0.00%    100.00% # attempts to use FU when none available
system.cpu00.iq.fu_full::SimdFloatCvt               0      0.00%    100.00% # attempts to use FU when none available
system.cpu00.iq.fu_full::SimdFloatDiv               0      0.00%    100.00% # attempts to use FU when none available
system.cpu00.iq.fu_full::SimdFloatMisc              0      0.00%    100.00% # attempts to use FU when none available
system.cpu00.iq.fu_full::SimdFloatMult              0      0.00%    100.00% # attempts to use FU when none available
system.cpu00.iq.fu_full::SimdFloatMultAcc            0      0.00%    100.00% # attempts to use FU when none available
system.cpu00.iq.fu_full::SimdFloatSqrt              0      0.00%    100.00% # attempts to use FU when none available
system.cpu00.iq.fu_full::MemRead                    0      0.00%    100.00% # attempts to use FU when none available
system.cpu00.iq.fu_full::MemWrite                   0      0.00%    100.00% # attempts to use FU when none available
system.cpu00.iq.fu_full::IprAccess                  0      0.00%    100.00% # attempts to use FU when none available
system.cpu00.iq.fu_full::InstPrefetch               0      0.00%    100.00% # attempts to use FU when none available
system.cpu00.iq.FU_type_0::No_OpClass               0      0.00%      0.00% # Type of FU issued
system.cpu00.iq.FU_type_0::IntAlu               31808     65.72%     65.72% # Type of FU issued
system.cpu00.iq.FU_type_0::IntMult               1376      2.84%     68.56% # Type of FU issued
system.cpu00.iq.FU_type_0::IntDiv                   0      0.00%     68.56% # Type of FU issued
system.cpu00.iq.FU_type_0::FloatAdd                 0      0.00%     68.56% # Type of FU issued
system.cpu00.iq.FU_type_0::FloatCmp                 0      0.00%     68.56% # Type of FU issued
system.cpu00.iq.FU_type_0::FloatCvt                 0      0.00%     68.56% # Type of FU issued
system.cpu00.iq.FU_type_0::FloatMult                0      0.00%     68.56% # Type of FU issued
system.cpu00.iq.FU_type_0::FloatDiv                 0      0.00%     68.56% # Type of FU issued
[...]
system.membus.pkt_count_system.cpu07.icache.mem_side::system.mem_ctrls.port          106                       # Packet count per connected master and slave (bytes)
system.membus.pkt_count_system.cpu07.dcache.mem_side::system.mem_ctrls.port          116                       # Packet count per connected master and slave (bytes)
system.membus.pkt_count_system.cpu08.icache.mem_side::system.mem_ctrls.port          106                       # Packet count per connected master and slave (bytes)
system.membus.pkt_count_system.cpu08.dcache.mem_side::system.mem_ctrls.port          110                       # Packet count per connected master and slave (bytes)
system.membus.pkt_count_system.cpu09.icache.mem_side::system.mem_ctrls.port          104                       # Packet count per connected master and slave (bytes)
system.membus.pkt_count_system.cpu09.dcache.mem_side::system.mem_ctrls.port          111                       # Packet count per connected master and slave (bytes)
system.membus.pkt_count_system.cpu10.icache.mem_side::system.mem_ctrls.port          106                       # Packet count per connected master and slave (bytes)
system.membus.pkt_count_system.cpu10.dcache.mem_side::system.mem_ctrls.port          113                       # Packet count per connected master and slave (bytes)
system.membus.pkt_count_system.cpu11.icache.mem_side::system.mem_ctrls.port          110                       # Packet count per connected master and slave (bytes)
system.membus.pkt_count_system.cpu11.dcache.mem_side::system.mem_ctrls.port          107                       # Packet count per connected master and slave (bytes)
system.membus.pkt_count_system.cpu12.icache.mem_side::system.mem_ctrls.port          104                       # Packet count per connected master and slave (bytes)
system.membus.pkt_count_system.cpu12.dcache.mem_side::system.mem_ctrls.port          109                       # Packet count per connected master and slave (bytes)
system.membus.pkt_count_system.cpu13.icache.mem_side::system.mem_ctrls.port          106                       # Packet count per connected master and slave (bytes)
system.membus.pkt_count_system.cpu13.dcache.mem_side::system.mem_ctrls.port          105                       # Packet count per connected master and slave (bytes)
system.membus.pkt_count_system.cpu14.icache.mem_side::system.mem_ctrls.port          104                       # Packet count per connected master and slave (bytes)
system.membus.pkt_count_system.cpu14.dcache.mem_side::system.mem_ctrls.port          108                       # Packet count per connected master and slave (bytes)
system.membus.pkt_count_system.cpu15.icache.mem_side::system.mem_ctrls.port          100                       # Packet count per connected master and slave (bytes)
system.membus.pkt_count_system.cpu15.dcache.mem_side::system.mem_ctrls.port          120                       # Packet count per connected master and slave (bytes)
system.membus.pkt_count::total                   5401                       # Packet count per connected master and slave (bytes)
system.membus.pkt_size_system.cpu00.icache.mem_side::system.mem_ctrls.port        38080                       # Cumulative packet size per connected master and slave (bytes)
system.membus.pkt_size_system.cpu00.dcache.mem_side::system.mem_ctrls.port        29952                       # Cumulative packet size per connected master and slave (bytes)
system.membus.pkt_size_system.cpu01.icache.mem_side::system.mem_ctrls.port         3328                       # Cumulative packet size per connected master and slave (bytes)
system.membus.pkt_size_system.cpu01.dcache.mem_side::system.mem_ctrls.port         1152                       # Cumulative packet size per connected master and slave (bytes)
system.membus.pkt_size_system.cpu02.icache.mem_side::system.mem_ctrls.port         3264                       # Cumulative packet size per connected master and slave (bytes)
system.membus.pkt_size_system.cpu02.dcache.mem_side::system.mem_ctrls.port         1088                       # Cumulative packet size per connected master and slave (bytes)
system.membus.pkt_size_system.cpu03.icache.mem_side::system.mem_ctrls.port         3264                       # Cumulative packet size per connected master and slave (bytes)
system.membus.pkt_size_system.cpu03.dcache.mem_side::system.mem_ctrls.port         1088                       # Cumulative packet size per connected master and slave (bytes)
system.membus.pkt_size_system.cpu04.icache.mem_side::system.mem_ctrls.port         3264                       # Cumulative packet size per connected master and slave (bytes)
system.membus.pkt_size_system.cpu04.dcache.mem_side::system.mem_ctrls.port         1088                       # Cumulative packet size per connected master and slave (bytes)
system.membus.pkt_size_system.cpu05.icache.mem_side::system.mem_ctrls.port         3328                       # Cumulative packet size per connected master and slave (bytes)
system.membus.pkt_size_system.cpu05.dcache.mem_side::system.mem_ctrls.port         1216                       # Cumulative packet size per connected master and slave (bytes)
system.membus.pkt_size_system.cpu06.icache.mem_side::system.mem_ctrls.port         3264                       # Cumulative packet size per connected master and slave (bytes)
system.membus.pkt_size_system.cpu06.dcache.mem_side::system.mem_ctrls.port         1088                       # Cumulative packet size per connected master and slave (bytes)
system.membus.pkt_size_system.cpu07.icache.mem_side::system.mem_ctrls.port         3392                       # Cumulative packet size per connected master and slave (bytes)
system.membus.pkt_size_system.cpu07.dcache.mem_side::system.mem_ctrls.port         1152                       # Cumulative packet size per connected master and slave (bytes)
system.membus.pkt_size_system.cpu08.icache.mem_side::system.mem_ctrls.port         3392                       # Cumulative packet size per connected master and slave (bytes)
system.membus.pkt_size_system.cpu08.dcache.mem_side::system.mem_ctrls.port         1152                       # Cumulative packet size per connected master and slave (bytes)
system.membus.pkt_size_system.cpu09.icache.mem_side::system.mem_ctrls.port         3328                       # Cumulative packet size per connected master and slave (bytes)
system.membus.pkt_size_system.cpu09.dcache.mem_side::system.mem_ctrls.port         1152                       # Cumulative packet size per connected master and slave (bytes)
system.membus.pkt_size_system.cpu10.icache.mem_side::system.mem_ctrls.port         3392                       # Cumulative packet size per connected master and slave (bytes)
system.membus.pkt_size_system.cpu10.dcache.mem_side::system.mem_ctrls.port         1152                       # Cumulative packet size per connected master and slave (bytes)
system.membus.pkt_size_system.cpu11.icache.mem_side::system.mem_ctrls.port         3520                       # Cumulative packet size per connected master and slave (bytes)
system.membus.pkt_size_system.cpu11.dcache.mem_side::system.mem_ctrls.port         1152                       # Cumulative packet size per connected master and slave (bytes)
system.membus.pkt_size_system.cpu12.icache.mem_side::system.mem_ctrls.port         3328                       # Cumulative packet size per connected master and slave (bytes)
system.membus.pkt_size_system.cpu12.dcache.mem_side::system.mem_ctrls.port         1152                       # Cumulative packet size per connected master and slave (bytes)
system.membus.pkt_size_system.cpu13.icache.mem_side::system.mem_ctrls.port         3392                       # Cumulative packet size per connected master and slave (bytes)
system.membus.pkt_size_system.cpu13.dcache.mem_side::system.mem_ctrls.port         1152                       # Cumulative packet size per connected master and slave (bytes)
system.membus.pkt_size_system.cpu14.icache.mem_side::system.mem_ctrls.port         3328                       # Cumulative packet size per connected master and slave (bytes)
system.membus.pkt_size_system.cpu14.dcache.mem_side::system.mem_ctrls.port         1152                       # Cumulative packet size per connected master and slave (bytes)
system.membus.pkt_size_system.cpu15.icache.mem_side::system.mem_ctrls.port         3200                       # Cumulative packet size per connected master and slave (bytes)
system.membus.pkt_size_system.cpu15.dcache.mem_side::system.mem_ctrls.port         1152                       # Cumulative packet size per connected master and slave (bytes)
system.membus.pkt_size::total                  135104                       # Cumulative packet size per connected master and slave (bytes)
system.membus.snoops                             1161                       # Total snoops (count)
system.membus.snoop_fanout::samples              3321                       # Request fanout histogram
system.membus.snoop_fanout::mean                   31                       # Request fanout histogram
system.membus.snoop_fanout::stdev                   0                       # Request fanout histogram
system.membus.snoop_fanout::underflows              0      0.00%      0.00% # Request fanout histogram
system.membus.snoop_fanout::0                       0      0.00%      0.00% # Request fanout histogram
system.membus.snoop_fanout::1                       0      0.00%      0.00% # Request fanout histogram
system.membus.snoop_fanout::2                       0      0.00%      0.00% # Request fanout histogram
system.membus.snoop_fanout::3                       0      0.00%      0.00% # Request fanout histogram
system.membus.snoop_fanout::4                       0      0.00%      0.00% # Request fanout histogram
system.membus.snoop_fanout::5                       0      0.00%      0.00% # Request fanout histogram
system.membus.snoop_fanout::6                       0      0.00%      0.00% # Request fanout histogram
system.membus.snoop_fanout::7                       0      0.00%      0.00% # Request fanout histogram
system.membus.snoop_fanout::8                       0      0.00%      0.00% # Request fanout histogram
system.membus.snoop_fanout::9                       0      0.00%      0.00% # Request fanout histogram
system.membus.snoop_fanout::10                      0      0.00%      0.00% # Request fanout histogram
system.membus.snoop_fanout::11                      0      0.00%      0.00% # Request fanout histogram
system.membus.snoop_fanout::12                      0      0.00%      0.00% # Request fanout histogram
system.membus.snoop_fanout::13                      0      0.00%      0.00% # Request fanout histogram
system.membus.snoop_fanout::14                      0      0.00%      0.00% # Request fanout histogram
system.membus.snoop_fanout::15                      0      0.00%      0.00% # Request fanout histogram
system.membus.snoop_fanout::16                      0      0.00%      0.00% # Request fanout histogram
system.membus.snoop_fanout::17                      0      0.00%      0.00% # Request fanout histogram
system.membus.snoop_fanout::18                      0      0.00%      0.00% # Request fanout histogram
system.membus.snoop_fanout::19                      0      0.00%      0.00% # Request fanout histogram
system.membus.snoop_fanout::20                      0      0.00%      0.00% # Request fanout histogram
system.membus.snoop_fanout::21                      0      0.00%      0.00% # Request fanout histogram
system.membus.snoop_fanout::22                      0      0.00%      0.00% # Request fanout histogram
system.membus.snoop_fanout::23                      0      0.00%      0.00% # Request fanout histogram
system.membus.snoop_fanout::24                      0      0.00%      0.00% # Request fanout histogram
system.membus.snoop_fanout::25                      0      0.00%      0.00% # Request fanout histogram
system.membus.snoop_fanout::26                      0      0.00%      0.00% # Request fanout histogram
system.membus.snoop_fanout::27                      0      0.00%      0.00% # Request fanout histogram
system.membus.snoop_fanout::28                      0      0.00%      0.00% # Request fanout histogram
system.membus.snoop_fanout::29                      0      0.00%      0.00% # Request fanout histogram
system.membus.snoop_fanout::30                      0      0.00%      0.00% # Request fanout histogram
system.membus.snoop_fanout::31                   3321    100.00%    100.00% # Request fanout histogram
system.membus.snoop_fanout::32                      0      0.00%    100.00% # Request fanout histogram
system.membus.snoop_fanout::overflows               0      0.00%    100.00% # Request fanout histogram
system.membus.snoop_fanout::min_value              31                       # Request fanout histogram
system.membus.snoop_fanout::max_value              31                       # Request fanout histogram
system.membus.snoop_fanout::total                3321                       # Request fanout histogram
system.membus.reqLayer0.occupancy             3984218                       # Layer occupancy (ticks)
system.membus.reqLayer0.utilization               8.9                       # Layer utilization (%)
system.membus.respLayer1.occupancy            3160000                       # Layer occupancy (ticks)
system.membus.respLayer1.utilization              7.0                       # Layer utilization (%)
system.membus.respLayer2.occupancy            2442981                       # Layer occupancy (ticks)
system.membus.respLayer2.utilization              5.4                       # Layer utilization (%)
system.membus.respLayer5.occupancy             276000                       # Layer occupancy (ticks)
system.membus.respLayer5.utilization              0.6                       # Layer utilization (%)
system.membus.respLayer6.occupancy             434946                       # Layer occupancy (ticks)
system.membus.respLayer6.utilization              1.0                       # Layer utilization (%)
system.membus.respLayer9.occupancy             272749                       # Layer occupancy (ticks)
system.membus.respLayer9.utilization              0.6                       # Layer utilization (%)
system.membus.respLayer10.occupancy            514690                       # Layer occupancy (ticks)
system.membus.respLayer10.utilization             1.1                       # Layer utilization (%)
system.membus.respLayer13.occupancy            267500                       # Layer occupancy (ticks)
system.membus.respLayer13.utilization             0.6                       # Layer utilization (%)
system.membus.respLayer14.occupancy            535450                       # Layer occupancy (ticks)
system.membus.respLayer14.utilization             1.2                       # Layer utilization (%)
system.membus.respLayer17.occupancy            273250                       # Layer occupancy (ticks)
system.membus.respLayer17.utilization             0.6                       # Layer utilization (%)
system.membus.respLayer18.occupancy            502940                       # Layer occupancy (ticks)
system.membus.respLayer18.utilization             1.1                       # Layer utilization (%)
system.membus.respLayer21.occupancy            277999                       # Layer occupancy (ticks)
system.membus.respLayer21.utilization             0.6                       # Layer utilization (%)
system.membus.respLayer22.occupancy            525950                       # Layer occupancy (ticks)
system.membus.respLayer22.utilization             1.2                       # Layer utilization (%)
system.membus.respLayer25.occupancy            272750                       # Layer occupancy (ticks)
system.membus.respLayer25.utilization             0.6                       # Layer utilization (%)
system.membus.respLayer26.occupancy            525200                       # Layer occupancy (ticks)
system.membus.respLayer26.utilization             1.2                       # Layer utilization (%)
system.membus.respLayer29.occupancy            282250                       # Layer occupancy (ticks)
system.membus.respLayer29.utilization             0.6                       # Layer utilization (%)
system.membus.respLayer30.occupancy            510444                       # Layer occupancy (ticks)
system.membus.respLayer30.utilization             1.1                       # Layer utilization (%)
system.membus.respLayer33.occupancy            281000                       # Layer occupancy (ticks)
system.membus.respLayer33.utilization             0.6                       # Layer utilization (%)
system.membus.respLayer34.occupancy            475711                       # Layer occupancy (ticks)
system.membus.respLayer34.utilization             1.1                       # Layer utilization (%)
system.membus.respLayer37.occupancy            277750                       # Layer occupancy (ticks)
system.membus.respLayer37.utilization             0.6                       # Layer utilization (%)
system.membus.respLayer38.occupancy            477704                       # Layer occupancy (ticks)
system.membus.respLayer38.utilization             1.1                       # Layer utilization (%)
system.membus.respLayer41.occupancy            280500                       # Layer occupancy (ticks)
system.membus.respLayer41.utilization             0.6                       # Layer utilization (%)
system.membus.respLayer42.occupancy            493683                       # Layer occupancy (ticks)
system.membus.respLayer42.utilization             1.1                       # Layer utilization (%)
system.membus.respLayer45.occupancy            295000                       # Layer occupancy (ticks)
system.membus.respLayer45.utilization             0.7                       # Layer utilization (%)
system.membus.respLayer46.occupancy            459189                       # Layer occupancy (ticks)
system.membus.respLayer46.utilization             1.0                       # Layer utilization (%)
system.membus.respLayer49.occupancy            276750                       # Layer occupancy (ticks)
system.membus.respLayer49.utilization             0.6                       # Layer utilization (%)
system.membus.respLayer50.occupancy            466440                       # Layer occupancy (ticks)
system.membus.respLayer50.utilization             1.0                       # Layer utilization (%)
system.membus.respLayer53.occupancy            282999                       # Layer occupancy (ticks)
system.membus.respLayer53.utilization             0.6                       # Layer utilization (%)
system.membus.respLayer54.occupancy            447953                       # Layer occupancy (ticks)
system.membus.respLayer54.utilization             1.0                       # Layer utilization (%)
system.membus.respLayer57.occupancy            276750                       # Layer occupancy (ticks)
system.membus.respLayer57.utilization             0.6                       # Layer utilization (%)
system.membus.respLayer58.occupancy            457951                       # Layer occupancy (ticks)
system.membus.respLayer58.utilization             1.0                       # Layer utilization (%)
system.membus.respLayer61.occupancy            266000                       # Layer occupancy (ticks)
system.membus.respLayer61.utilization             0.6                       # Layer utilization (%)
system.membus.respLayer62.occupancy            510462                       # Layer occupancy (ticks)
system.membus.respLayer62.utilization             1.1                       # Layer utilization (%)

---------- End Simulation Statistics   ----------
