
---------- Begin Simulation Statistics ----------
sim_seconds                                  0.000048                       # Number of seconds simulated
sim_ticks                                    48119000                       # Number of ticks simulated
final_tick                                   48119000                       # Number of ticks from beginning of simulation (restored from checkpoints and never reset)
sim_freq                                 1000000000000                       # Frequency of simulated ticks
host_inst_rate                                 150659                       # Simulator instruction rate (inst/s)
host_op_rate                                   158185                       # Simulator op (including micro ops) rate (op/s)
host_tick_rate                               24014784                       # Simulator tick rate (ticks/s)
host_mem_usage                                 728596                       # Number of bytes of host memory used
host_seconds                                     2.00                       # Real time elapsed on the host
sim_insts                                      301873                       # Number of instructions simulated
sim_ops                                        316956                       # Number of ops (including micro ops) simulated
system.voltage_domain.voltage                       1                       # Voltage in Volts
system.clk_domain.clock                          1000                       # Clock period in ticks
system.mem_ctrls.bytes_read::cpu00.inst         39296                       # Number of bytes read from this memory
system.mem_ctrls.bytes_read::cpu00.data         22016                       # Number of bytes read from this memory
system.mem_ctrls.bytes_read::cpu01.inst          3136                       # Number of bytes read from this memory
system.mem_ctrls.bytes_read::cpu01.data           960                       # Number of bytes read from this memory
system.mem_ctrls.bytes_read::cpu02.inst          3264                       # Number of bytes read from this memory
system.mem_ctrls.bytes_read::cpu02.data           960                       # Number of bytes read from this memory
system.mem_ctrls.bytes_read::cpu03.inst          3200                       # Number of bytes read from this memory
system.mem_ctrls.bytes_read::cpu03.data           960                       # Number of bytes read from this memory
system.mem_ctrls.bytes_read::cpu04.inst          3072                       # Number of bytes read from this memory
system.mem_ctrls.bytes_read::cpu04.data           960                       # Number of bytes read from this memory
system.mem_ctrls.bytes_read::cpu05.inst          3200                       # Number of bytes read from this memory
system.mem_ctrls.bytes_read::cpu05.data           960                       # Number of bytes read from this memory
system.mem_ctrls.bytes_read::cpu06.inst          3264                       # Number of bytes read from this memory
system.mem_ctrls.bytes_read::cpu06.data           960                       # Number of bytes read from this memory
system.mem_ctrls.bytes_read::cpu07.inst          3136                       # Number of bytes read from this memory
system.mem_ctrls.bytes_read::cpu07.data           960                       # Number of bytes read from this memory
system.mem_ctrls.bytes_read::cpu08.inst          3136                       # Number of bytes read from this memory
system.mem_ctrls.bytes_read::cpu08.data           960                       # Number of bytes read from this memory
system.mem_ctrls.bytes_read::cpu09.inst          3264                       # Number of bytes read from this memory
system.mem_ctrls.bytes_read::cpu09.data           960                       # Number of bytes read from this memory
system.mem_ctrls.bytes_read::cpu10.inst          3392                       # Number of bytes read from this memory
system.mem_ctrls.bytes_read::cpu10.data           960                       # Number of bytes read from this memory
system.mem_ctrls.bytes_read::cpu11.inst          3264                       # Number of bytes read from this memory
system.mem_ctrls.bytes_read::cpu11.data           960                       # Number of bytes read from this memory
system.mem_ctrls.bytes_read::cpu12.inst          3392                       # Number of bytes read from this memory
system.mem_ctrls.bytes_read::cpu12.data          1024                       # Number of bytes read from this memory
system.mem_ctrls.bytes_read::cpu13.inst          3328                       # Number of bytes read from this memory
system.mem_ctrls.bytes_read::cpu13.data           896                       # Number of bytes read from this memory
system.mem_ctrls.bytes_read::cpu14.inst          3328                       # Number of bytes read from this memory
system.mem_ctrls.bytes_read::cpu14.data           896                       # Number of bytes read from this memory
system.mem_ctrls.bytes_read::cpu15.inst          3264                       # Number of bytes read from this memory
system.mem_ctrls.bytes_read::cpu15.data           960                       # Number of bytes read from this memory
system.mem_ctrls.bytes_read::total             124288                       # Number of bytes read from this memory
system.mem_ctrls.bytes_inst_read::cpu00.inst        39296                       # Number of instructions bytes read from this memory
system.mem_ctrls.bytes_inst_read::cpu01.inst         3136                       # Number of instructions bytes read from this memory
system.mem_ctrls.bytes_inst_read::cpu02.inst         3264                       # Number of instructions bytes read from this memory
system.mem_ctrls.bytes_inst_read::cpu03.inst         3200                       # Number of instructions bytes read from this memory
system.mem_ctrls.bytes_inst_read::cpu04.inst         3072                       # Number of instructions bytes read from this memory
system.mem_ctrls.bytes_inst_read::cpu05.inst         3200                       # Number of instructions bytes read from this memory
system.mem_ctrls.bytes_inst_read::cpu06.inst         3264                       # Number of instructions bytes read from this memory
system.mem_ctrls.bytes_inst_read::cpu07.inst         3136                       # Number of instructions bytes read from this memory
system.mem_ctrls.bytes_inst_read::cpu08.inst         3136                       # Number of instructions bytes read from this memory
system.mem_ctrls.bytes_inst_read::cpu09.inst         3264                       # Number of instructions bytes read from this memory
system.mem_ctrls.bytes_inst_read::cpu10.inst         3392                       # Number of instructions bytes read from this memory
system.mem_ctrls.bytes_inst_read::cpu11.inst         3264                       # Number of instructions bytes read from this memory
system.mem_ctrls.bytes_inst_read::cpu12.inst         3392                       # Number of instructions bytes read from this memory
system.mem_ctrls.bytes_inst_read::cpu13.inst         3328                       # Number of instructions bytes read from this memory
system.mem_ctrls.bytes_inst_read::cpu14.inst         3328                       # Number of instructions bytes read from this memory
system.mem_ctrls.bytes_inst_read::cpu15.inst         3264                       # Number of instructions bytes read from this memory
system.mem_ctrls.bytes_inst_read::total         87936                       # Number of instructions bytes read from this memory
system.mem_ctrls.bytes_written::writebacks         1024                       # Number of bytes written to this memory
system.mem_ctrls.bytes_written::total            1024                       # Number of bytes written to this memory
system.mem_ctrls.num_reads::cpu00.inst            614                       # Number of read requests responded to by this memory
system.mem_ctrls.num_reads::cpu00.data            344                       # Number of read requests responded to by this memory
system.mem_ctrls.num_reads::cpu01.inst             49                       # Number of read requests responded to by this memory
system.mem_ctrls.num_reads::cpu01.data             15                       # Number of read requests responded to by this memory
system.mem_ctrls.num_reads::cpu02.inst             51                       # Number of read requests responded to by this memory
system.mem_ctrls.num_reads::cpu02.data             15                       # Number of read requests responded to by this memory
system.mem_ctrls.num_reads::cpu03.inst             50                       # Number of read requests responded to by this memory
system.mem_ctrls.num_reads::cpu03.data             15                       # Number of read requests responded to by this memory
system.mem_ctrls.num_reads::cpu04.inst             48                       # Number of read requests responded to by this memory
system.mem_ctrls.num_reads::cpu04.data             15                       # Number of read requests responded to by this memory
system.mem_ctrls.num_reads::cpu05.inst             50                       # Number of read requests responded to by this memory
system.mem_ctrls.num_reads::cpu05.data             15                       # Number of read requests responded to by this memory
system.mem_ctrls.num_reads::cpu06.inst             51                       # Number of read requests responded to by this memory
system.mem_ctrls.num_reads::cpu06.data             15                       # Number of read requests responded to by this memory
system.mem_ctrls.num_reads::cpu07.inst             49                       # Number of read requests responded to by this memory
system.mem_ctrls.num_reads::cpu07.data             15                       # Number of read requests responded to by this memory
system.mem_ctrls.num_reads::cpu08.inst             49                       # Number of read requests responded to by this memory
system.mem_ctrls.num_reads::cpu08.data             15                       # Number of read requests responded to by this memory
system.mem_ctrls.num_reads::cpu09.inst             51                       # Number of read requests responded to by this memory
system.mem_ctrls.num_reads::cpu09.data             15                       # Number of read requests responded to by this memory
system.mem_ctrls.num_reads::cpu10.inst             53                       # Number of read requests responded to by this memory
system.mem_ctrls.num_reads::cpu10.data             15                       # Number of read requests responded to by this memory
system.mem_ctrls.num_reads::cpu11.inst             51                       # Number of read requests responded to by this memory
system.mem_ctrls.num_reads::cpu11.data             15                       # Number of read requests responded to by this memory
system.mem_ctrls.num_reads::cpu12.inst             53                       # Number of read requests responded to by this memory
system.mem_ctrls.num_reads::cpu12.data             16                       # Number of read requests responded to by this memory
system.mem_ctrls.num_reads::cpu13.inst             52                       # Number of read requests responded to by this memory
system.mem_ctrls.num_reads::cpu13.data             14                       # Number of read requests responded to by this memory
system.mem_ctrls.num_reads::cpu14.inst             52                       # Number of read requests responded to by this memory
system.mem_ctrls.num_reads::cpu14.data             14                       # Number of read requests responded to by this memory
system.mem_ctrls.num_reads::cpu15.inst             51                       # Number of read requests responded to by this memory
system.mem_ctrls.num_reads::cpu15.data             15                       # Number of read requests responded to by this memory
system.mem_ctrls.num_reads::total                1942                       # Number of read requests responded to by this memory
system.mem_ctrls.num_writes::writebacks            16                       # Number of write requests responded to by this memory
system.mem_ctrls.num_writes::total                 16                       # Number of write requests responded to by this memory
system.mem_ctrls.bw_read::cpu00.inst        816642075                       # Total read bandwidth from this memory (bytes/s)
system.mem_ctrls.bw_read::cpu00.data        457532368                       # Total read bandwidth from this memory (bytes/s)
system.mem_ctrls.bw_read::cpu01.inst         65171762                       # Total read bandwidth from this memory (bytes/s)
system.mem_ctrls.bw_read::cpu01.data         19950539                       # Total read bandwidth from this memory (bytes/s)
system.mem_ctrls.bw_read::cpu02.inst         67831834                       # Total read bandwidth from this memory (bytes/s)
system.mem_ctrls.bw_read::cpu02.data         19950539                       # Total read bandwidth from this memory (bytes/s)
system.mem_ctrls.bw_read::cpu03.inst         66501798                       # Total read bandwidth from this memory (bytes/s)
system.mem_ctrls.bw_read::cpu03.data         19950539                       # Total read bandwidth from this memory (bytes/s)
system.mem_ctrls.bw_read::cpu04.inst         63841726                       # Total read bandwidth from this memory (bytes/s)
system.mem_ctrls.bw_read::cpu04.data         19950539                       # Total read bandwidth from this memory (bytes/s)
system.mem_ctrls.bw_read::cpu05.inst         66501798                       # Total read bandwidth from this memory (bytes/s)
system.mem_ctrls.bw_read::cpu05.data         19950539                       # Total read bandwidth from this memory (bytes/s)
system.mem_ctrls.bw_read::cpu06.inst         67831834                       # Total read bandwidth from this memory (bytes/s)
system.mem_ctrls.bw_read::cpu06.data         19950539                       # Total read bandwidth from this memory (bytes/s)
system.mem_ctrls.bw_read::cpu07.inst         65171762                       # Total read bandwidth from this memory (bytes/s)
system.mem_ctrls.bw_read::cpu07.data         19950539                       # Total read bandwidth from this memory (bytes/s)
system.mem_ctrls.bw_read::cpu08.inst         65171762                       # Total read bandwidth from this memory (bytes/s)
system.mem_ctrls.bw_read::cpu08.data         19950539                       # Total read bandwidth from this memory (bytes/s)
system.mem_ctrls.bw_read::cpu09.inst         67831834                       # Total read bandwidth from this memory (bytes/s)
system.mem_ctrls.bw_read::cpu09.data         19950539                       # Total read bandwidth from this memory (bytes/s)
system.mem_ctrls.bw_read::cpu10.inst         70491905                       # Total read bandwidth from this memory (bytes/s)
system.mem_ctrls.bw_read::cpu10.data         19950539                       # Total read bandwidth from this memory (bytes/s)
system.mem_ctrls.bw_read::cpu11.inst         67831834                       # Total read bandwidth from this memory (bytes/s)
system.mem_ctrls.bw_read::cpu11.data         19950539                       # Total read bandwidth from this memory (bytes/s)
system.mem_ctrls.bw_read::cpu12.inst         70491905                       # Total read bandwidth from this memory (bytes/s)
system.mem_ctrls.bw_read::cpu12.data         21280575                       # Total read bandwidth from this memory (bytes/s)
system.mem_ctrls.bw_read::cpu13.inst         69161870                       # Total read bandwidth from this memory (bytes/s)
system.mem_ctrls.bw_read::cpu13.data         18620503                       # Total read bandwidth from this memory (bytes/s)
system.mem_ctrls.bw_read::cpu14.inst         69161870                       # Total read bandwidth from this memory (bytes/s)
system.mem_ctrls.bw_read::cpu14.data         18620503                       # Total read bandwidth from this memory (bytes/s)
system.mem_ctrls.bw_read::cpu15.inst         67831834                       # Total read bandwidth from this memory (bytes/s)
system.mem_ctrls.bw_read::cpu15.data         19950539                       # Total read bandwidth from this memory (bytes/s)
system.mem_ctrls.bw_read::total            2582929820                       # Total read bandwidth from this memory (bytes/s)
system.mem_ctrls.bw_inst_read::cpu00.inst    816642075                       # Instruction read bandwidth from this memory (bytes/s)
system.mem_ctrls.bw_inst_read::cpu01.inst     65171762                       # Instruction read bandwidth from this memory (bytes/s)
system.mem_ctrls.bw_inst_read::cpu02.inst     67831834                       # Instruction read bandwidth from this memory (bytes/s)
system.mem_ctrls.bw_inst_read::cpu03.inst     66501798                       # Instruction read bandwidth from this memory (bytes/s)
system.mem_ctrls.bw_inst_read::cpu04.inst     63841726                       # Instruction read bandwidth from this memory (bytes/s)
system.mem_ctrls.bw_inst_read::cpu05.inst     66501798                       # Instruction read bandwidth from this memory (bytes/s)
system.mem_ctrls.bw_inst_read::cpu06.inst     67831834                       # Instruction read bandwidth from this memory (bytes/s)
system.mem_ctrls.bw_inst_read::cpu07.inst     65171762                       # Instruction read bandwidth from this memory (bytes/s)
system.mem_ctrls.bw_inst_read::cpu08.inst     65171762                       # Instruction read bandwidth from this memory (bytes/s)
system.mem_ctrls.bw_inst_read::cpu09.inst     67831834                       # Instruction read bandwidth from this memory (bytes/s)
system.mem_ctrls.bw_inst_read::cpu10.inst     70491905                       # Instruction read bandwidth from this memory (bytes/s)
system.mem_ctrls.bw_inst_read::cpu11.inst     67831834                       # Instruction read bandwidth from this memory (bytes/s)
system.mem_ctrls.bw_inst_read::cpu12.inst     70491905                       # Instruction read bandwidth from this memory (bytes/s)
system.mem_ctrls.bw_inst_read::cpu13.inst     69161870                       # Instruction read bandwidth from this memory (bytes/s)
system.mem_ctrls.bw_inst_read::cpu14.inst     69161870                       # Instruction read bandwidth from this memory (bytes/s)
system.mem_ctrls.bw_inst_read::cpu15.inst     67831834                       # Instruction read bandwidth from this memory (bytes/s)
system.mem_ctrls.bw_inst_read::total       1827469399                       # Instruction read bandwidth from this memory (bytes/s)
system.mem_ctrls.bw_write::writebacks        21280575                       # Write bandwidth from this memory (bytes/s)
system.mem_ctrls.bw_write::total             21280575                       # Write bandwidth from this memory (bytes/s)
system.mem_ctrls.bw_total::writebacks        21280575                       # Total bandwidth to/from this memory (bytes/s)
system.mem_ctrls.bw_total::cpu00.inst       816642075                       # Total bandwidth to/from this memory (bytes/s)
system.mem_ctrls.bw_total::cpu00.data       457532368                       # Total bandwidth to/from this memory (bytes/s)
system.mem_ctrls.bw_total::cpu01.inst        65171762                       # Total bandwidth to/from this memory (bytes/s)
system.mem_ctrls.bw_total::cpu01.data        19950539                       # Total bandwidth to/from this memory (bytes/s)
system.mem_ctrls.bw_total::cpu02.inst        67831834                       # Total bandwidth to/from this memory (bytes/s)
system.mem_ctrls.bw_total::cpu02.data        19950539                       # Total bandwidth to/from this memory (bytes/s)
system.mem_ctrls.bw_total::cpu03.inst        66501798                       # Total bandwidth to/from this memory (bytes/s)
system.mem_ctrls.bw_total::cpu03.data        19950539                       # Total bandwidth to/from this memory (bytes/s)
system.mem_ctrls.bw_total::cpu04.inst        63841726                       # Total bandwidth to/from this memory (bytes/s)
system.mem_ctrls.bw_total::cpu04.data        19950539                       # Total bandwidth to/from this memory (bytes/s)
system.mem_ctrls.bw_total::cpu05.inst        66501798                       # Total bandwidth to/from this memory (bytes/s)
system.mem_ctrls.bw_total::cpu05.data        19950539                       # Total bandwidth to/from this memory (bytes/s)
system.mem_ctrls.bw_total::cpu06.inst        67831834                       # Total bandwidth to/from this memory (bytes/s)
system.mem_ctrls.bw_total::cpu06.data        19950539                       # Total bandwidth to/from this memory (bytes/s)
system.mem_ctrls.bw_total::cpu07.inst        65171762                       # Total bandwidth to/from this memory (bytes/s)
system.mem_ctrls.bw_total::cpu07.data        19950539                       # Total bandwidth to/from this memory (bytes/s)
system.mem_ctrls.bw_total::cpu08.inst        65171762                       # Total bandwidth to/from this memory (bytes/s)
system.mem_ctrls.bw_total::cpu08.data        19950539                       # Total bandwidth to/from this memory (bytes/s)
system.mem_ctrls.bw_total::cpu09.inst        67831834                       # Total bandwidth to/from this memory (bytes/s)
system.mem_ctrls.bw_total::cpu09.data        19950539                       # Total bandwidth to/from this memory (bytes/s)
system.mem_ctrls.bw_total::cpu10.inst        70491905                       # Total bandwidth to/from this memory (bytes/s)
system.mem_ctrls.bw_total::cpu10.data        19950539                       # Total bandwidth to/from this memory (bytes/s)
system.mem_ctrls.bw_total::cpu11.inst        67831834                       # Total bandwidth to/from this memory (bytes/s)
system.mem_ctrls.bw_total::cpu11.data        19950539                       # Total bandwidth to/from this memory (bytes/s)
system.mem_ctrls.bw_total::cpu12.inst        70491905                       # Total bandwidth to/from this memory (bytes/s)
system.mem_ctrls.bw_total::cpu12.data        21280575                       # Total bandwidth to/from this memory (bytes/s)
system.mem_ctrls.bw_total::cpu13.inst        69161870                       # Total bandwidth to/from this memory (bytes/s)
system.mem_ctrls.bw_total::cpu13.data        18620503                       # Total bandwidth to/from this memory (bytes/s)
system.mem_ctrls.bw_total::cpu14.inst        69161870                       # Total bandwidth to/from this memory (bytes/s)
system.mem_ctrls.bw_total::cpu14.data        18620503                       # Total bandwidth to/from this memory (bytes/s)
system.mem_ctrls.bw_total::cpu15.inst        67831834                       # Total bandwidth to/from this memory (bytes/s)
system.mem_ctrls.bw_total::cpu15.data        19950539                       # Total bandwidth to/from this memory (bytes/s)
system.mem_ctrls.bw_total::total           2604210395                       # Total bandwidth to/from this memory (bytes/s)
system.mem_ctrls.readReqs                        1943                       # Number of read requests accepted
system.mem_ctrls.writeReqs                         16                       # Number of write requests accepted
system.mem_ctrls.readBursts                      1943                       # Number of DRAM read bursts, including those serviced by the write queue
system.mem_ctrls.writeBursts                       16                       # Number of DRAM write bursts, including those merged in the write queue
system.mem_ctrls.bytesReadDRAM                 124352                       # Total number of bytes read from DRAM
system.mem_ctrls.bytesReadWrQ                       0                       # Total number of bytes read from write queue
system.mem_ctrls.bytesWritten                       0                       # Total number of bytes written to DRAM
system.mem_ctrls.bytesReadSys                  124352                       # Total read bytes from the system interface side
system.mem_ctrls.bytesWrittenSys                 1024                       # Total written bytes from the system interface side
system.mem_ctrls.servicedByWrQ                      0                       # Number of DRAM read bursts serviced by the write queue
system.mem_ctrls.mergedWrBursts                     0                       # Number of DRAM write bursts merged with an existing one
system.mem_ctrls.neitherReadNorWriteReqs           10                       # Number of requests that are neither read nor write
system.mem_ctrls.perBankRdBursts::0               264                       # Per bank write bursts
system.mem_ctrls.perBankRdBursts::1               604                       # Per bank write bursts
system.mem_ctrls.perBankRdBursts::2               298                       # Per bank write bursts
system.mem_ctrls.perBankRdBursts::3               227                       # Per bank write bursts
system.mem_ctrls.perBankRdBursts::4                81                       # Per bank write bursts
system.mem_ctrls.perBankRdBursts::5                87                       # Per bank write bursts
system.mem_ctrls.perBankRdBursts::6               141                       # Per bank write bursts
system.mem_ctrls.perBankRdBursts::7                31                       # Per bank write bursts
system.mem_ctrls.perBankRdBursts::8                16                       # Per bank write bursts
system.mem_ctrls.perBankRdBursts::9                 8                       # Per bank write bursts
system.mem_ctrls.perBankRdBursts::10                0                       # Per bank write bursts
system.mem_ctrls.perBankRdBursts::11               15                       # Per bank write bursts
system.mem_ctrls.perBankRdBursts::12                8                       # Per bank write bursts
system.mem_ctrls.perBankRdBursts::13               40                       # Per bank write bursts
system.mem_ctrls.perBankRdBursts::14               39                       # Per bank write bursts
system.mem_ctrls.perBankRdBursts::15               84                       # Per bank write bursts
system.mem_ctrls.perBankWrBursts::0                 0                       # Per bank write bursts
system.mem_ctrls.perBankWrBursts::1                 0                       # Per bank write bursts
system.mem_ctrls.perBankWrBursts::2                 0                       # Per bank write bursts
system.mem_ctrls.perBankWrBursts::3                 0                       # Per bank write bursts
system.mem_ctrls.perBankWrBursts::4                 0                       # Per bank write bursts
system.mem_ctrls.perBankWrBursts::5                 0                       # Per bank write bursts
system.mem_ctrls.perBankWrBursts::6                 0                       # Per bank write bursts
system.mem_ctrls.perBankWrBursts::7                 0                       # Per bank write bursts
system.mem_ctrls.perBankWrBursts::8                 0                       # Per bank write bursts
system.mem_ctrls.perBankWrBursts::9                 0                       # Per bank write bursts
system.mem_ctrls.perBankWrBursts::10                0                       # Per bank write bursts
system.mem_ctrls.perBankWrBursts::11                0                       # Per bank write bursts
system.mem_ctrls.perBankWrBursts::12                0                       # Per bank write bursts
system.mem_ctrls.perBankWrBursts::13                0                       # Per bank write bursts
system.mem_ctrls.perBankWrBursts::14                0                       # Per bank write bursts
system.mem_ctrls.perBankWrBursts::15                0                       # Per bank write bursts
system.mem_ctrls.numRdRetry                        10                       # Number of times read queue was full causing retry
system.mem_ctrls.numWrRetry                         0                       # Number of times write queue was full causing retry
system.mem_ctrls.totGap                      48111500                       # Total gap between requests
system.mem_ctrls.readPktSize::0                     0                       # Read request sizes (log2)
system.mem_ctrls.readPktSize::1                     0                       # Read request sizes (log2)
system.mem_ctrls.readPktSize::2                     0                       # Read request sizes (log2)
system.mem_ctrls.readPktSize::3                     0                       # Read request sizes (log2)
system.mem_ctrls.readPktSize::4                     0                       # Read request sizes (log2)
system.mem_ctrls.readPktSize::5                     0                       # Read request sizes (log2)
system.mem_ctrls.readPktSize::6                  1943                       # Read request sizes (log2)
system.mem_ctrls.writePktSize::0                    0                       # Write request sizes (log2)
system.mem_ctrls.writePktSize::1                    0                       # Write request sizes (log2)
system.mem_ctrls.writePktSize::2                    0                       # Write request sizes (log2)
system.mem_ctrls.writePktSize::3                    0                       # Write request sizes (log2)
system.mem_ctrls.writePktSize::4                    0                       # Write request sizes (log2)
system.mem_ctrls.writePktSize::5                    0                       # Write request sizes (log2)
system.mem_ctrls.writePktSize::6                   16                       # Write request sizes (log2)
system.mem_ctrls.rdQLenPdf::0                     562                       # What read queue length does an incoming req see
system.mem_ctrls.rdQLenPdf::1                     273                       # What read queue length does an incoming req see
system.mem_ctrls.rdQLenPdf::2                     111                       # What read queue length does an incoming req see
system.mem_ctrls.rdQLenPdf::3                      65                       # What read queue length does an incoming req see
system.mem_ctrls.rdQLenPdf::4                      87                       # What read queue length does an incoming req see
system.mem_ctrls.rdQLenPdf::5                      62                       # What read queue length does an incoming req see
system.mem_ctrls.rdQLenPdf::6                      59                       # What read queue length does an incoming req see
system.mem_ctrls.rdQLenPdf::7                      63                       # What read queue length does an incoming req see
system.mem_ctrls.rdQLenPdf::8                      84                       # What read queue length does an incoming req see
system.mem_ctrls.rdQLenPdf::9                      86                       # What read queue length does an incoming req see
system.mem_ctrls.rdQLenPdf::10                     69                       # What read queue length does an incoming req see
system.mem_ctrls.rdQLenPdf::11                     72                       # What read queue length does an incoming req see
system.mem_ctrls.rdQLenPdf::12                     41                       # What read queue length does an incoming req see
system.mem_ctrls.rdQLenPdf::13                     27                       # What read queue length does an incoming req see
system.mem_ctrls.rdQLenPdf::14                     13                       # What read queue length does an incoming req see
system.mem_ctrls.rdQLenPdf::15                     13                       # What read queue length does an incoming req see
system.mem_ctrls.rdQLenPdf::16                     14                       # What read queue length does an incoming req see
system.mem_ctrls.rdQLenPdf::17                     18                       # What read queue length does an incoming req see
system.mem_ctrls.rdQLenPdf::18                      9                       # What read queue length does an incoming req see
system.mem_ctrls.rdQLenPdf::19                     16                       # What read queue length does an incoming req see
system.mem_ctrls.rdQLenPdf::20                     19                       # What read queue length does an incoming req see
system.mem_ctrls.rdQLenPdf::21                     22                       # What read queue length does an incoming req see
system.mem_ctrls.rdQLenPdf::22                     22                       # What read queue length does an incoming req see
system.mem_ctrls.rdQLenPdf::23                     21                       # What read queue length does an incoming req see
system.mem_ctrls.rdQLenPdf::24                     13                       # What read queue length does an incoming req see
system.mem_ctrls.rdQLenPdf::25                      9                       # What read queue length does an incoming req see
system.mem_ctrls.rdQLenPdf::26                     14                       # What read queue length does an incoming req see
system.mem_ctrls.rdQLenPdf::27                     21                       # What read queue length does an incoming req see
system.mem_ctrls.rdQLenPdf::28                     14                       # What read queue length does an incoming req see
system.mem_ctrls.rdQLenPdf::29                     17                       # What read queue length does an incoming req see
system.mem_ctrls.rdQLenPdf::30                     12                       # What read queue length does an incoming req see
system.mem_ctrls.rdQLenPdf::31                     15                       # What read queue length does an incoming req see
system.mem_ctrls.wrQLenPdf::0                       1                       # What write queue length does an incoming req see
system.mem_ctrls.wrQLenPdf::1                       1                       # What write queue length does an incoming req see
system.mem_ctrls.wrQLenPdf::2                       1                       # What write queue length does an incoming req see
system.mem_ctrls.wrQLenPdf::3                       1                       # What write queue length does an incoming req see
system.mem_ctrls.wrQLenPdf::4                       1                       # What write queue length does an incoming req see
system.mem_ctrls.wrQLenPdf::5                       1                       # What write queue length does an incoming req see
system.mem_ctrls.wrQLenPdf::6                       1                       # What write queue length does an incoming req see
system.mem_ctrls.wrQLenPdf::7                       1                       # What write queue length does an incoming req see
system.mem_ctrls.wrQLenPdf::8                       1                       # What write queue length does an incoming req see
system.mem_ctrls.wrQLenPdf::9                       1                       # What write queue length does an incoming req see
system.mem_ctrls.wrQLenPdf::10                      1                       # What write queue length does an incoming req see
system.mem_ctrls.wrQLenPdf::11                      1                       # What write queue length does an incoming req see
system.mem_ctrls.wrQLenPdf::12                      1                       # What write queue length does an incoming req see
system.mem_ctrls.wrQLenPdf::13                      1                       # What write queue length does an incoming req see
system.mem_ctrls.wrQLenPdf::14                      1                       # What write queue length does an incoming req see
system.mem_ctrls.wrQLenPdf::15                      1                       # What write queue length does an incoming req see
system.mem_ctrls.wrQLenPdf::16                      0                       # What write queue length does an incoming req see
system.mem_ctrls.wrQLenPdf::17                      0                       # What write queue length does an incoming req see
system.mem_ctrls.wrQLenPdf::18                      0                       # What write queue length does an incoming req see
system.mem_ctrls.wrQLenPdf::19                      0                       # What write queue length does an incoming req see
system.mem_ctrls.wrQLenPdf::20                      0                       # What write queue length does an incoming req see
system.mem_ctrls.wrQLenPdf::21                      0                       # What write queue length does an incoming req see
system.mem_ctrls.wrQLenPdf::22                      0                       # What write queue length does an incoming req see
system.mem_ctrls.wrQLenPdf::23                      0                       # What write queue length does an incoming req see
system.mem_ctrls.wrQLenPdf::24                      0                       # What write queue length does an incoming req see
system.mem_ctrls.wrQLenPdf::25                      0                       # What write queue length does an incoming req see
system.mem_ctrls.wrQLenPdf::26                      0                       # What write queue length does an incoming req see
system.mem_ctrls.wrQLenPdf::27                      0                       # What write queue length does an incoming req see
system.mem_ctrls.wrQLenPdf::28                      0                       # What write queue length does an incoming req see
system.mem_ctrls.wrQLenPdf::29                      0                       # What write queue length does an incoming req see
system.mem_ctrls.wrQLenPdf::30                      0                       # What write queue length does an incoming req see
system.mem_ctrls.wrQLenPdf::31                      0                       # What write queue length does an incoming req see
system.mem_ctrls.wrQLenPdf::32                      0                       # What write queue length does an incoming req see
system.mem_ctrls.wrQLenPdf::33                      0                       # What write queue length does an incoming req see
system.mem_ctrls.wrQLenPdf::34                      0                       # What write queue length does an incoming req see
system.mem_ctrls.wrQLenPdf::35                      0                       # What write queue length does an incoming req see
system.mem_ctrls.wrQLenPdf::36                      0                       # What write queue length does an incoming req see
system.mem_ctrls.wrQLenPdf::37                      0                       # What write queue length does an incoming req see
system.mem_ctrls.wrQLenPdf::38                      0                       # What write queue length does an incoming req see
system.mem_ctrls.wrQLenPdf::39                      0                       # What write queue length does an incoming req see
system.mem_ctrls.wrQLenPdf::40                      0                       # What write queue length does an incoming req see
system.mem_ctrls.wrQLenPdf::41                      0                       # What write queue length does an incoming req see
system.mem_ctrls.wrQLenPdf::42                      0                       # What write queue length does an incoming req see
system.mem_ctrls.wrQLenPdf::43                      0                       # What write queue length does an incoming req see
system.mem_ctrls.wrQLenPdf::44                      0                       # What write queue length does an incoming req see
system.mem_ctrls.wrQLenPdf::45                      0                       # What write queue length does an incoming req see
system.mem_ctrls.wrQLenPdf::46                      0                       # What write queue length does an incoming req see
system.mem_ctrls.wrQLenPdf::47                      0                       # What write queue length does an incoming req see
system.mem_ctrls.wrQLenPdf::48                      0                       # What write queue length does an incoming req see
system.mem_ctrls.wrQLenPdf::49                      0                       # What write queue length does an incoming req see
system.mem_ctrls.wrQLenPdf::50                      0                       # What write queue length does an incoming req see
system.mem_ctrls.wrQLenPdf::51                      0                       # What write queue length does an incoming req see
system.mem_ctrls.wrQLenPdf::52                      0                       # What write queue length does an incoming req see
system.mem_ctrls.wrQLenPdf::53                      0                       # What write queue length does an incoming req see
system.mem_ctrls.wrQLenPdf::54                      0                       # What write queue length does an incoming req see
system.mem_ctrls.wrQLenPdf::55                      0                       # What write queue length does an incoming req see
system.mem_ctrls.wrQLenPdf::56                      0                       # What write queue length does an incoming req see
system.mem_ctrls.wrQLenPdf::57                      0                       # What write queue length does an incoming req see
system.mem_ctrls.wrQLenPdf::58                      0                       # What write queue length does an incoming req see
system.mem_ctrls.wrQLenPdf::59                      0                       # What write queue length does an incoming req see
system.mem_ctrls.wrQLenPdf::60                      0                       # What write queue length does an incoming req see
system.mem_ctrls.wrQLenPdf::61                      0                       # What write queue length does an incoming req see
system.mem_ctrls.wrQLenPdf::62                      0                       # What write queue length does an incoming req see
system.mem_ctrls.wrQLenPdf::63                      0                       # What write queue length does an incoming req see
system.mem_ctrls.bytesPerActivate::samples          414                       # Bytes accessed per row activation
system.mem_ctrls.bytesPerActivate::mean    298.666667                       # Bytes accessed per row activation
system.mem_ctrls.bytesPerActivate::gmean   160.952431                       # Bytes accessed per row activation
system.mem_ctrls.bytesPerActivate::stdev   352.066910                       # Bytes accessed per row activation
system.mem_ctrls.bytesPerActivate::0-127          195     47.10%     47.10% # Bytes accessed per row activation
system.mem_ctrls.bytesPerActivate::128-255           84     20.29%     67.39% # Bytes accessed per row activation
system.mem_ctrls.bytesPerActivate::256-383           25      6.04%     73.43% # Bytes accessed per row activation
system.mem_ctrls.bytesPerActivate::384-511           21      5.07%     78.50% # Bytes accessed per row activation
system.mem_ctrls.bytesPerActivate::512-639           11      2.66%     81.16% # Bytes accessed per row activation
system.mem_ctrls.bytesPerActivate::640-767            6      1.45%     82.61% # Bytes accessed per row activation
system.mem_ctrls.bytesPerActivate::768-895            3      0.72%     83.33% # Bytes accessed per row activation
system.mem_ctrls.bytesPerActivate::896-1023            4      0.97%     84.30% # Bytes accessed per row activation
system.mem_ctrls.bytesPerActivate::1024-1151           65     15.70%    100.00% # Bytes accessed per row activation
system.mem_ctrls.bytesPerActivate::total          414                       # Bytes accessed per row activation
system.mem_ctrls.totQLat                     74890750                       # Total ticks spent queuing
system.mem_ctrls.totMemAccLat               111322000                       # Total ticks spent from burst creation until serviced by the DRAM
system.mem_ctrls.totBusLat                    9715000                       # Total ticks spent in databus transfers
system.mem_ctrls.avgQLat                     38543.88                       # Average queueing delay per DRAM burst
system.mem_ctrls.avgBusLat                    5000.00                       # Average bus latency per DRAM burst
system.mem_ctrls.avgMemAccLat                57293.88                       # Average memory access latency per DRAM burst
system.mem_ctrls.avgRdBW                      2584.26                       # Average DRAM read bandwidth in MiByte/s
system.mem_ctrls.avgWrBW                         0.00                       # Average achieved write bandwidth in MiByte/s
system.mem_ctrls.avgRdBWSys                   2584.26                       # Average system read bandwidth in MiByte/s
system.mem_ctrls.avgWrBWSys                     21.28                       # Average system write bandwidth in MiByte/s
system.mem_ctrls.peakBW                      12800.00                       # Theoretical peak bandwidth in MiByte/s
system.mem_ctrls.busUtil                        20.19                       # Data bus utilization in percentage
system.mem_ctrls.busUtilRead                    20.19                       # Data bus utilization in percentage for reads
system.mem_ctrls.busUtilWrite                    0.00                       # Data bus utilization in percentage for writes
system.mem_ctrls.avgRdQLen                       3.28                       # Average read queue length when enqueuing
system.mem_ctrls.avgWrQLen                       3.39                       # Average write queue length when enqueuing
system.mem_ctrls.readRowHits                     1524                       # Number of row buffer hits during reads
system.mem_ctrls.writeRowHits                       0                       # Number of row buffer hits during writes
system.mem_ctrls.readRowHitRate                 78.44                       # Row buffer hit rate for reads
system.mem_ctrls.writeRowHitRate                 0.00                       # Row buffer hit rate for writes
system.mem_ctrls.avgGap                      24559.21                       # Average gap between requests
system.mem_ctrls.pageHitRate                    77.79                       # Row buffer hit rate, read and write combined
system.mem_ctrls_0.actEnergy                  2850120                       # Energy for activate commands per rank (pJ)
system.mem_ctrls_0.preEnergy                  1555125                       # Energy for precharge commands per rank (pJ)
system.mem_ctrls_0.readEnergy                13501800                       # Energy for read commands per rank (pJ)
system.mem_ctrls_0.writeEnergy                      0                       # Energy for write commands per rank (pJ)
system.mem_ctrls_0.refreshEnergy              3051360                       # Energy for refresh commands per rank (pJ)
system.mem_ctrls_0.actBackEnergy             31823955                       # Energy for active background per rank (pJ)
system.mem_ctrls_0.preBackEnergy               270750                       # Energy for precharge background per rank (pJ)
system.mem_ctrls_0.totalEnergy               53053110                       # Total energy per rank (pJ)
system.mem_ctrls_0.averagePower           1129.330211                       # Core power per rank (mW)
system.mem_ctrls_0.memoryStateTime::IDLE       368500                       # Time in different power states
system.mem_ctrls_0.memoryStateTime::REF       1560000                       # Time in different power states
system.mem_ctrls_0.memoryStateTime::PRE_PDN            0                       # Time in different power states
system.mem_ctrls_0.memoryStateTime::ACT      45132500                       # Time in different power states
system.mem_ctrls_0.memoryStateTime::ACT_PDN            0                       # Time in different power states
system.mem_ctrls_1.actEnergy                   272160                       # Energy for activate commands per rank (pJ)
system.mem_ctrls_1.preEnergy                   148500                       # Energy for precharge commands per rank (pJ)
system.mem_ctrls_1.readEnergy                 1443000                       # Energy for read commands per rank (pJ)
system.mem_ctrls_1.writeEnergy                      0                       # Energy for write commands per rank (pJ)
system.mem_ctrls_1.refreshEnergy              3051360                       # Energy for refresh commands per rank (pJ)
system.mem_ctrls_1.actBackEnergy             27159075                       # Energy for active background per rank (pJ)
system.mem_ctrls_1.preBackEnergy              4362750                       # Energy for precharge background per rank (pJ)
system.mem_ctrls_1.totalEnergy               36436845                       # Total energy per rank (pJ)
system.mem_ctrls_1.averagePower            775.623330                       # Core power per rank (mW)
system.mem_ctrls_1.memoryStateTime::IDLE      7090750                       # Time in different power states
system.mem_ctrls_1.memoryStateTime::REF       1560000                       # Time in different power states
system.mem_ctrls_1.memoryStateTime::PRE_PDN            0                       # Time in different power states
system.mem_ctrls_1.memoryStateTime::ACT      38340500                       # Time in different power states
system.mem_ctrls_1.memoryStateTime::ACT_PDN            0                       # Time in different power states
system.cpu00.branchPred.lookups                  7999                       # Number of BP lookups
system.cpu00.branchPred.condPredicted            5663                       # Number of conditional branches predicted
system.cpu00.branchPred.condIncorrect            1189                       # Number of conditional branches incorrect
system.cpu00.branchPred.BTBLookups               2518                       # Number of BTB lookups
system.cpu00.branchPred.BTBHits                  1763                       # Number of BTB hits
system.cpu00.branchPred.BTBCorrect                  0                       # Number of correct BTB predictions (this stat may not work properly.
system.cpu00.branchPred.BTBHitPct           70.015886                       # BTB Hit Percentage
system.cpu00.branchPred.usedRAS                   838                       # Number of times the RAS was used to get a target.
system.cpu00.branchPred.RASInCorrect                7                       # Number of incorrect RAS predictions.
system.cpu_voltage_domain.voltage                   1                       # Voltage in Volts
system.cpu_clk_domain.clock                       500                       # Clock period in ticks
system.cpu00.dstage2_mmu.stage2_tlb.walker.walks            0                       # Table walker walks requested
system.cpu00.dstage2_mmu.stage2_tlb.walker.walkRequestOrigin_Requested::Data            0                       # Table walker requests started/completed, data/inst
system.cpu00.dstage2_mmu.stage2_tlb.walker.walkRequestOrigin_Requested::Inst            0                       # Table walker requests started/completed, data/inst
system.cpu00.dstage2_mmu.stage2_tlb.walker.walkRequestOrigin_Requested::total            0                       # Table walker requests started/completed, data/inst
system.cpu00.dstage2_mmu.stage2_tlb.walker.walkRequestOrigin_Completed::Data            0                       # Table walker requests started/completed, data/inst
system.cpu00.dstage2_mmu.stage2_tlb.walker.walkRequestOrigin_Completed::Inst            0                       # Table walker requests started/completed, data/inst
system.cpu00.dstage2_mmu.stage2_tlb.walker.walkRequestOrigin_Completed::total            0                       # Table walker requests started/completed, data/inst
system.cpu00.dstage2_mmu.stage2_tlb.walker.walkRequestOrigin::total            0                       # Table walker requests started/completed, data/inst
system.cpu00.dstage2_mmu.stage2_tlb.inst_hits            0                       # ITB inst hits
system.cpu00.dstage2_mmu.stage2_tlb.inst_misses            0                       # ITB inst misses
system.cpu00.dstage2_mmu.stage2_tlb.read_hits            0                       # DTB read hits
system.cpu00.dstage2_mmu.stage2_tlb.read_misses            0                       # DTB read misses
system.cpu00.dstage2_mmu.stage2_tlb.write_hits            0                       # DTB write hits
system.cpu00.dstage2_mmu.stage2_tlb.write_misses            0                       # DTB write misses
system.cpu00.dstage2_mmu.stage2_tlb.flush_tlb            0                       # Number of times complete TLB was flushed
system.cpu00.dstage2_mmu.stage2_tlb.flush_tlb_mva            0                       # Number of times TLB was flushed by MVA
system.cpu00.dstage2_mmu.stage2_tlb.flush_tlb_mva_asid            0                       # Number of times TLB was flushed by MVA & ASID
system.cpu00.dstage2_mmu.stage2_tlb.flush_tlb_asid            0                       # Number of times TLB was flushed by ASID
system.cpu00.dstage2_mmu.stage2_tlb.flush_entries            0                       # Number of entries that have been flushed from TLB
system.cpu00.dstage2_mmu.stage2_tlb.align_faults            0                       # Number of TLB faults due to alignment restrictions
system.cpu00.dstage2_mmu.stage2_tlb.prefetch_faults            0                       # Number of TLB faults due to prefetch
system.cpu00.dstage2_mmu.stage2_tlb.domain_faults            0                       # Number of TLB faults due to domain restrictions
system.cpu00.dstage2_mmu.stage2_tlb.perms_faults            0                       # Number of TLB faults due to permissions restrictions
system.cpu00.dstage2_mmu.stage2_tlb.read_accesses            0                       # DTB read accesses
system.cpu00.dstage2_mmu.stage2_tlb.write_accesses            0                       # DTB write accesses
system.cpu00.dstage2_mmu.stage2_tlb.inst_accesses            0                       # ITB inst accesses
system.cpu00.dstage2_mmu.stage2_tlb.hits            0                       # DTB hits
system.cpu00.dstage2_mmu.stage2_tlb.misses            0                       # DTB misses
system.cpu00.dstage2_mmu.stage2_tlb.accesses            0                       # DTB accesses
system.cpu00.dtb.walker.walks                       0                       # Table walker walks requested
system.cpu00.dtb.walker.walkRequestOrigin_Requested::Data            0                       # Table walker requests started/completed, data/inst
system.cpu00.dtb.walker.walkRequestOrigin_Requested::Inst            0                       # Table walker requests started/completed, data/inst
system.cpu00.dtb.walker.walkRequestOrigin_Requested::total            0                       # Table walker requests started/completed, data/inst
system.cpu00.dtb.walker.walkRequestOrigin_Completed::Data            0                       # Table walker requests started/completed, data/inst
system.cpu00.dtb.walker.walkRequestOrigin_Completed::Inst            0                       # Table walker requests started/completed, data/inst
system.cpu00.dtb.walker.walkRequestOrigin_Completed::total            0                       # Table walker requests started/completed, data/inst
system.cpu00.dtb.walker.walkRequestOrigin::total            0                       # Table walker requests started/completed, data/inst
system.cpu00.dtb.inst_hits                          0                       # ITB inst hits
system.cpu00.dtb.inst_misses                        0                       # ITB inst misses
system.cpu00.dtb.read_hits                          0                       # DTB read hits
system.cpu00.dtb.read_misses                        0                       # DTB read misses
system.cpu00.dtb.write_hits                         0                       # DTB write hits
system.cpu00.dtb.write_misses                       0                       # DTB write misses
system.cpu00.dtb.flush_tlb                          0                       # Number of times complete TLB was flushed
system.cpu00.dtb.flush_tlb_mva                      0                       # Number of times TLB was flushed by MVA
system.cpu00.dtb.flush_tlb_mva_asid                 0                       # Number of times TLB was flushed by MVA & ASID
system.cpu00.dtb.flush_tlb_asid                     0                       # Number of times TLB was flushed by ASID
system.cpu00.dtb.flush_entries                      0                       # Number of entries that have been flushed from TLB
system.cpu00.dtb.align_faults                       0                       # Number of TLB faults due to alignment restrictions
system.cpu00.dtb.prefetch_faults                    0                       # Number of TLB faults due to prefetch
system.cpu00.dtb.domain_faults                      0                       # Number of TLB faults due to domain restrictions
system.cpu00.dtb.perms_faults                       0                       # Number of TLB faults due to permissions restrictions
system.cpu00.dtb.read_accesses                      0                       # DTB read accesses
system.cpu00.dtb.write_accesses                     0                       # DTB write accesses
system.cpu00.dtb.inst_accesses                      0                       # ITB inst accesses
system.cpu00.dtb.hits                               0                       # DTB hits
system.cpu00.dtb.misses                             0                       # DTB misses
system.cpu00.dtb.accesses                           0                       # DTB accesses
system.cpu00.istage2_mmu.stage2_tlb.walker.walks            0                       # Table walker walks requested
system.cpu00.istage2_mmu.stage2_tlb.walker.walkRequestOrigin_Requested::Data            0                       # Table walker requests started/completed, data/inst
system.cpu00.istage2_mmu.stage2_tlb.walker.walkRequestOrigin_Requested::Inst            0                       # Table walker requests started/completed, data/inst
system.cpu00.istage2_mmu.stage2_tlb.walker.walkRequestOrigin_Requested::total            0                       # Table walker requests started/completed, data/inst
system.cpu00.istage2_mmu.stage2_tlb.walker.walkRequestOrigin_Completed::Data            0                       # Table walker requests started/completed, data/inst
system.cpu00.istage2_mmu.stage2_tlb.walker.walkRequestOrigin_Completed::Inst            0                       # Table walker requests started/completed, data/inst
system.cpu00.istage2_mmu.stage2_tlb.walker.walkRequestOrigin_Completed::total            0                       # Table walker requests started/completed, data/inst
system.cpu00.istage2_mmu.stage2_tlb.walker.walkRequestOrigin::total            0                       # Table walker requests started/completed, data/inst
system.cpu00.istage2_mmu.stage2_tlb.inst_hits            0                       # ITB inst hits
system.cpu00.istage2_mmu.stage2_tlb.inst_misses            0                       # ITB inst misses
system.cpu00.istage2_mmu.stage2_tlb.read_hits            0                       # DTB read hits
system.cpu00.istage2_mmu.stage2_tlb.read_misses            0                       # DTB read misses
system.cpu00.istage2_mmu.stage2_tlb.write_hits            0                       # DTB write hits
system.cpu00.istage2_mmu.stage2_tlb.write_misses            0                       # DTB write misses
system.cpu00.istage2_mmu.stage2_tlb.flush_tlb            0                       # Number of times complete TLB was flushed
system.cpu00.istage2_mmu.stage2_tlb.flush_tlb_mva            0                       # Number of times TLB was flushed by MVA
system.cpu00.istage2_mmu.stage2_tlb.flush_tlb_mva_asid            0                       # Number of times TLB was flushed by MVA & ASID
system.cpu00.istage2_mmu.stage2_tlb.flush_tlb_asid            0                       # Number of times TLB was flushed by ASID
system.cpu00.istage2_mmu.stage2_tlb.flush_entries            0                       # Number of entries that have been flushed from TLB
system.cpu00.istage2_mmu.stage2_tlb.align_faults            0                       # Number of TLB faults due to alignment restrictions
system.cpu00.istage2_mmu.stage2_tlb.prefetch_faults            0                       # Number of TLB faults due to prefetch
system.cpu00.istage2_mmu.stage2_tlb.domain_faults            0                       # Number of TLB faults due to domain restrictions
system.cpu00.istage2_mmu.stage2_tlb.perms_faults            0                       # Number of TLB faults due to permissions restrictions
system.cpu00.istage2_mmu.stage2_tlb.read_accesses            0                       # DTB read accesses
system.cpu00.istage2_mmu.stage2_tlb.write_accesses            0                       # DTB write accesses
system.cpu00.istage2_mmu.stage2_tlb.inst_accesses            0                       # ITB inst accesses
system.cpu00.istage2_mmu.stage2_tlb.hits            0                       # DTB hits
system.cpu00.istage2_mmu.stage2_tlb.misses            0                       # DTB misses
system.cpu00.istage2_mmu.stage2_tlb.accesses            0                       # DTB accesses
system.cpu00.itb.walker.walks                       0                       # Table walker walks requested
system.cpu00.itb.walker.walkRequestOrigin_Requested::Data            0                       # Table walker requests started/completed, data/inst
system.cpu00.itb.walker.walkRequestOrigin_Requested::Inst            0                       # Table walker requests started/completed, data/inst
system.cpu00.itb.walker.walkRequestOrigin_Requested::total            0                       # Table walker requests started/completed, data/inst
system.cpu00.itb.walker.walkRequestOrigin_Completed::Data            0                       # Table walker requests started/completed, data/inst
system.cpu00.itb.walker.walkRequestOrigin_Completed::Inst            0                       # Table walker requests started/completed, data/inst
system.cpu00.itb.walker.walkRequestOrigin_Completed::total            0                       # Table walker requests started/completed, data/inst
system.cpu00.itb.walker.walkRequestOrigin::total            0                       # Table walker requests started/completed, data/inst
system.cpu00.itb.inst_hits                          0                       # ITB inst hits
system.cpu00.itb.inst_misses                        0                       # ITB inst misses
system.cpu00.itb.read_hits                          0                       # DTB read hits
system.cpu00.itb.read_misses                        0                       # DTB read misses
system.cpu00.itb.write_hits                         0                       # DTB write hits
system.cpu00.itb.write_misses                       0                       # DTB write misses
system.cpu00.itb.flush_tlb                          0                       # Number of times complete TLB was flushed
system.cpu00.itb.flush_tlb_mva                      0                       # Number of times TLB was flushed by MVA
system.cpu00.itb.flush_tlb_mva_asid                 0                       # Number of times TLB was flushed by MVA & ASID
system.cpu00.itb.flush_tlb_asid                     0                       # Number of times TLB was flushed by ASID
system.cpu00.itb.flush_entries                      0                       # Number of entries that have been flushed from TLB
system.cpu00.itb.align_faults                       0                       # Number of TLB faults due to alignment restrictions
system.cpu00.itb.prefetch_faults                    0                       # Number of TLB faults due to prefetch
system.cpu00.itb.domain_faults                      0                       # Number of TLB faults due to domain restrictions
system.cpu00.itb.perms_faults                       0                       # Number of TLB faults due to permissions restrictions
system.cpu00.itb.read_accesses                      0                       # DTB read accesses
system.cpu00.itb.write_accesses                     0                       # DTB write accesses
system.cpu00.itb.inst_accesses                      0                       # ITB inst accesses
system.cpu00.itb.hits                               0                       # DTB hits
system.cpu00.itb.misses                             0                       # DTB misses
system.cpu00.itb.accesses                           0                       # DTB accesses
system.cpu00.workload.num_syscalls                370                       # Number of system calls
system.cpu00.numCycles                          96239                       # number of cpu cycles simulated
system.cpu00.numWorkItemsStarted                    0                       # number of work items this cpu started
system.cpu00.numWorkItemsCompleted                  0                       # number of work items this cpu completed
system.cpu00.fetch.icacheStallCycles            15128                       # Number of cycles fetch is stalled on an Icache miss
system.cpu00.fetch.Insts                        40360                       # Number of instructions fetch has processed
system.cpu00.fetch.Branches                      7999                       # Number of branches that fetch encountered
system.cpu00.fetch.predictedBranches             2601                       # Number of branches that fetch has predicted taken
system.cpu00.fetch.Cycles                       39053                       # Number of cycles fetch has run and was not squashing or blocked
system.cpu00.fetch.SquashCycles                  2495                       # Number of cycles fetch has spent squashing
system.cpu00.fetch.MiscStallCycles                302                       # Number of cycles fetch has spent waiting on interrupts, or bad addresses, or out of MSHRs
system.cpu00.fetch.PendingTrapStallCycles          108                       # Number of stall cycles due to pending traps
system.cpu00.fetch.IcacheWaitRetryStallCycles          431                       # Number of stall cycles due to full MSHR
system.cpu00.fetch.CacheLines                   12861                       # Number of cache lines fetched
system.cpu00.fetch.IcacheSquashes                 360                       # Number of outstanding Icache misses that were squashed
system.cpu00.fetch.rateDist::samples            56269                       # Number of instructions fetched each cycle (Total)
system.cpu00.fetch.rateDist::mean            0.858785                       # Number of instructions fetched each cycle (Total)
system.cpu00.fetch.rateDist::stdev           1.211042                       # Number of instructions fetched each cycle (Total)
system.cpu00.fetch.rateDist::underflows             0      0.00%      0.00% # Number of instructions fetched each cycle (Total)
system.cpu00.fetch.rateDist::0                  33928     60.30%     60.30% # Number of instructions fetched each cycle (Total)
system.cpu00.fetch.rateDist::1                   8227     14.62%     74.92% # Number of instructions fetched each cycle (Total)
system.cpu00.fetch.rateDist::2                   2246      3.99%     78.91% # Number of instructions fetched each cycle (Total)
system.cpu00.fetch.rateDist::3                  11868     21.09%    100.00% # Number of instructions fetched each cycle (Total)
system.cpu00.fetch.rateDist::overflows              0      0.00%    100.00% # Number of instructions fetched each cycle (Total)
system.cpu00.fetch.rateDist::min_value              0                       # Number of instructions fetched each cycle (Total)
system.cpu00.fetch.rateDist::max_value              3                       # Number of instructions fetched each cycle (Total)
system.cpu00.fetch.rateDist::total              56269                       # Number of instructions fetched each cycle (Total)
system.cpu00.fetch.branchRate                0.083116                       # Number of branch fetches per cycle
system.cpu00.fetch.rate                      0.419373                       # Number of inst fetches per cycle
system.cpu00.decode.IdleCycles                  13423                       # Number of cycles decode is idle
system.cpu00.decode.BlockedCycles               23147                       # Number of cycles decode is blocked
system.cpu00.decode.RunCycles                   18065                       # Number of cycles decode is running
system.cpu00.decode.UnblockCycles                 710                       # Number of cycles decode is unblocking
system.cpu00.decode.SquashCycles                  924                       # Number of cycles decode is squashing
system.cpu00.decode.BranchResolved                929                       # Number of times decode resolved a branch
system.cpu00.decode.BranchMispred                 346                       # Number of times decode detected a branch misprediction
system.cpu00.decode.DecodedInsts                38708                       # Number of instructions handled by decode
system.cpu00.decode.SquashedInsts                3996                       # Number of squashed instructions handled by decode
system.cpu00.rename.SquashCycles                  924                       # Number of cycles rename is squashing
system.cpu00.rename.IdleCycles                  16441                       # Number of cycles rename is idle
system.cpu00.rename.BlockCycles                  2355                       # Number of cycles rename is blocking
system.cpu00.rename.serializeStallCycles         9725                       # count of cycles rename stalled for serializing inst
system.cpu00.rename.RunCycles                   15726                       # Number of cycles rename is running
system.cpu00.rename.UnblockCycles               11098                       # Number of cycles rename is unblocking
system.cpu00.rename.RenamedInsts                35608                       # Number of instructions processed by rename
system.cpu00.rename.SquashedInsts                1312                       # Number of squashed instructions processed by rename
system.cpu00.rename.ROBFullEvents                  82                       # Number of times rename has blocked due to ROB full
system.cpu00.rename.IQFullEvents                   11                       # Number of times rename has blocked due to IQ full
system.cpu00.rename.LQFullEvents                    1                       # Number of times rename has blocked due to LQ full
system.cpu00.rename.SQFullEvents                10623                       # Number of times rename has blocked due to SQ full
system.cpu00.rename.RenamedOperands             40150                       # Number of destination operands rename has renamed
system.cpu00.rename.RenameLookups              166839                       # Number of register rename lookups that rename has made
system.cpu00.rename.int_rename_lookups          42938                       # Number of integer rename lookups
system.cpu00.rename.fp_rename_lookups              22                       # Number of floating rename lookups
system.cpu00.rename.CommittedMaps               29762                       # Number of HB maps that are committed
system.cpu00.rename.UndoneMaps                  10388                       # Number of HB maps that are undone due to squashing
system.cpu00.rename.serializingInsts              131                       # count of serializing insts renamed
system.cpu00.rename.tempSerializingInsts          129                       # count of temporary serializing insts renamed
system.cpu00.rename.skidInsts                    1957                       # count of insts added to the skid buffer
system.cpu00.memDep0.insertedLoads               5721                       # Number of loads inserted to the mem dependence unit.
system.cpu00.memDep0.insertedStores              5595                       # Number of stores inserted to the mem dependence unit.
system.cpu00.memDep0.conflictingLoads             246                       # Number of conflicting loads.
system.cpu00.memDep0.conflictingStores            113                       # Number of conflicting stores.
system.cpu00.iq.iqInstsAdded                    33995                       # Number of instructions added to the IQ (excludes non-spec)
system.cpu00.iq.iqNonSpecInstsAdded               266                       # Number of non-speculative instructions added to the IQ
system.cpu00.iq.iqInstsIssued                   31088                       # Number of instructions issued
system.cpu00.iq.iqSquashedInstsIssued             405                       # Number of squashed instructions issued
system.cpu00.iq.iqSquashedInstsExamined          8227                       # Number of squashed instructions iterated over during squash; mainly for profiling
system.cpu00.iq.iqSquashedOperandsExamined        20317                       # Number of squashed operands that are examined and possibly removed from graph
system.cpu00.iq.iqSquashedNonSpecRemoved           46                       # Number of squashed non-spec instructions that were removed
system.cpu00.iq.issued_per_cycle::samples        56269                       # Number of insts issued each cycle
system.cpu00.iq.issued_per_cycle::mean       0.552489                       # Number of insts issued each cycle
system.cpu00.iq.issued_per_cycle::stdev      0.947212                       # Number of insts issued each cycle
system.cpu00.iq.issued_per_cycle::underflows            0      0.00%      0.00% # Number of insts issued each cycle
system.cpu00.iq.issued_per_cycle::0             39331     69.90%     69.90% # Number of insts issued each cycle
system.cpu00.iq.issued_per_cycle::1              6696     11.90%     81.80% # Number of insts issued each cycle
system.cpu00.iq.issued_per_cycle::2              6559     11.66%     93.45% # Number of insts issued each cycle
system.cpu00.iq.issued_per_cycle::3              3461      6.15%     99.61% # Number of insts issued each cycle
system.cpu00.iq.issued_per_cycle::4               219      0.39%     99.99% # Number of insts issued each cycle
system.cpu00.iq.issued_per_cycle::5                 3      0.01%    100.00% # Number of insts issued each cycle
system.cpu00.iq.issued_per_cycle::6                 0      0.00%    100.00% # Number of insts issued each cycle
system.cpu00.iq.issued_per_cycle::7                 0      0.00%    100.00% # Number of insts issued each cycle
system.cpu00.iq.issued_per_cycle::8                 0      0.00%    100.00% # Number of insts issued each cycle
system.cpu00.iq.issued_per_cycle::overflows            0      0.00%    100.00% # Number of insts issued each cycle
system.cpu00.iq.issued_per_cycle::min_value            0                       # Number of insts issued each cycle
system.cpu00.iq.issued_per_cycle::max_value            5                       # Number of insts issued each cycle
system.cpu00.iq.issued_per_cycle::total         56269                       # Number of insts issued each cycle
system.cpu00.iq.fu_full::No_OpClass                 0      0.00%      0.00% # attempts to use FU when none available
system.cpu00.iq.fu_full::IntAlu                  2564     38.10%     38.10% # attempts to use FU when none available
system.cpu00.iq.fu_full::IntMult                    2      0.03%     38.13% # attempts to use FU when none available
system.cpu00.iq.fu_full::IntDiv                     0      0.00%     38.13% # attempts to use FU when none available
system.cpu00.iq.fu_full::FloatAdd                   0      0.00%     38.13% # attempts to use FU when none available
system.cpu00.iq.fu_full::FloatCmp                   0      0.00%     38.13% # attempts to use FU when none available
system.cpu00.iq.fu_full::FloatCvt                   0      0.00%     38.13% # attempts to use FU when none available
system.cpu00.iq.fu_full::FloatMult                  0      0.00%     38.13% # attempts to use FU when none available
system.cpu00.iq.fu_full::FloatDiv                   0      0.00%     38.13% # attempts to use FU when none available
system.cpu00.iq.fu_full::FloatSqrt                  0      0.00%     38.13% # attempts to use FU when none available
system.cpu00.iq.fu_full::SimdAdd                    0      0.00%     38.13% # attempts to use FU when none available
system.cpu00.iq.fu_full::SimdAddAcc                 0      0.00%     38.13% # attempts to use FU when none available
system.cpu00.iq.fu_full::SimdAlu                    0      0.00%     38.13% # attempts to use FU when none available
system.cpu00.iq.fu_full::SimdCmp                    0      0.00%     38.13% # attempts to use FU when none available
system.cpu00.iq.fu_full::SimdCvt                    0      0.00%     38.13% # attempts to use FU when none available
system.cpu00.iq.fu_full::SimdMisc                   0      0.00%     38.13% # attempts to use FU when none available
system.cpu00.iq.fu_full::SimdMult                   0      0.00%     38.13% # attempts to use FU when none available
system.cpu00.iq.fu_full::SimdMultAcc                0      0.00%     38.13% # attempts to use FU when none available
system.cpu00.iq.fu_full::SimdShift                  0      0.00%     38.13% # attempts to use FU when none available
system.cpu00.iq.fu_full::SimdShiftAcc               0      0.00%     38.13% # attempts to use FU when none available
system.cpu00.iq.fu_full::SimdSqrt                   0      0.00%     38.13% # attempts to use FU when none available
system.cpu00.iq.fu_full::SimdFloatAdd               0      0.00%     38.13% # attempts to use FU when none available
system.cpu00.iq.fu_full::SimdFloatAlu               0      0.00%     38.13% # attempts to use FU when none available
system.cpu00.iq.fu_full::SimdFloatCmp               0      0.00%     38.13% # attempts to use FU when none available
system.cpu00.iq.fu_full::SimdFloatCvt               0      0.00%     38.13% # attempts to use FU when none available
system.cpu00.iq.fu_full::SimdFloatDiv               0      0.00%     38.13% # attempts to use FU when none available
system.cpu00.iq.fu_full::SimdFloatMisc              0      0.00%     38.13% # attempts to use FU when none available
system.cpu00.iq.fu_full::SimdFloatMult              0      0.00%     38.13% # attempts to use FU when none available
system.cpu00.iq.fu_full::SimdFloatMultAcc            0      0.00%     38.13% # attempts to use FU when none available
system.cpu00.iq.fu_full::SimdFloatSqrt              0      0.00%     38.13% # attempts to use FU when none available
system.cpu00.iq.fu_full::MemRead                 1422     21.13%     59.26% # attempts to use FU when none available
system.cpu00.iq.fu_full::MemWrite                2742     40.74%    100.00% # attempts to use FU when none available
system.cpu00.iq.fu_full::IprAccess                  0      0.00%    100.00% # attempts to use FU when none available
system.cpu00.iq.fu_full::InstPrefetch               0      0.00%    100.00% # attempts to use FU when none available
system.cpu00.iq.FU_type_0::No_OpClass               0      0.00%      0.00% # Type of FU issued
system.cpu00.iq.FU_type_0::IntAlu               20481     65.88%     65.88% # Type of FU issued
system.cpu00.iq.FU_type_0::IntMult                119      0.38%     66.26% # Type of FU issued
system.cpu00.iq.FU_type_0::IntDiv                   0      0.00%     66.26% # Type of FU issued
system.cpu00.iq.FU_type_0::FloatAdd                 0      0.00%     66.26% # Type of FU issued
system.cpu00.iq.FU_type_0::FloatCmp                 0      0.00%     66.26% # Type of FU issued
system.cpu00.iq.FU_type_0::FloatCvt                 0      0.00%     66.26% # Type of FU issued
system.cpu00.iq.FU_type_0::FloatMult                0      0.00%     66.26% # Type of FU issued
system.cpu00.iq.FU_type_0::FloatDiv                 0      0.00%     66.26% # Type of FU issued
[...]
system.membus.pkt_count_system.cpu07.icache.mem_side::system.mem_ctrls.port           98                       # Packet count per connected master and slave (bytes)
system.membus.pkt_count_system.cpu07.dcache.mem_side::system.mem_ctrls.port           62                       # Packet count per connected master and slave (bytes)
system.membus.pkt_count_system.cpu08.icache.mem_side::system.mem_ctrls.port           98                       # Packet count per connected master and slave (bytes)
system.membus.pkt_count_system.cpu08.dcache.mem_side::system.mem_ctrls.port           68                       # Packet count per connected master and slave (bytes)
system.membus.pkt_count_system.cpu09.icache.mem_side::system.mem_ctrls.port          102                       # Packet count per connected master and slave (bytes)
system.membus.pkt_count_system.cpu09.dcache.mem_side::system.mem_ctrls.port           66                       # Packet count per connected master and slave (bytes)
system.membus.pkt_count_system.cpu10.icache.mem_side::system.mem_ctrls.port          106                       # Packet count per connected master and slave (bytes)
system.membus.pkt_count_system.cpu10.dcache.mem_side::system.mem_ctrls.port           58                       # Packet count per connected master and slave (bytes)
system.membus.pkt_count_system.cpu11.icache.mem_side::system.mem_ctrls.port          102                       # Packet count per connected master and slave (bytes)
system.membus.pkt_count_system.cpu11.dcache.mem_side::system.mem_ctrls.port           62                       # Packet count per connected master and slave (bytes)
system.membus.pkt_count_system.cpu12.icache.mem_side::system.mem_ctrls.port          106                       # Packet count per connected master and slave (bytes)
system.membus.pkt_count_system.cpu12.dcache.mem_side::system.mem_ctrls.port           58                       # Packet count per connected master and slave (bytes)
system.membus.pkt_count_system.cpu13.icache.mem_side::system.mem_ctrls.port          104                       # Packet count per connected master and slave (bytes)
system.membus.pkt_count_system.cpu13.dcache.mem_side::system.mem_ctrls.port           57                       # Packet count per connected master and slave (bytes)
system.membus.pkt_count_system.cpu14.icache.mem_side::system.mem_ctrls.port          104                       # Packet count per connected master and slave (bytes)
system.membus.pkt_count_system.cpu14.dcache.mem_side::system.mem_ctrls.port           60                       # Packet count per connected master and slave (bytes)
system.membus.pkt_count_system.cpu15.icache.mem_side::system.mem_ctrls.port          102                       # Packet count per connected master and slave (bytes)
system.membus.pkt_count_system.cpu15.dcache.mem_side::system.mem_ctrls.port           56                       # Packet count per connected master and slave (bytes)
system.membus.pkt_count::total                   4436                       # Packet count per connected master and slave (bytes)
system.membus.pkt_size_system.cpu00.icache.mem_side::system.mem_ctrls.port        39296                       # Cumulative packet size per connected master and slave (bytes)
system.membus.pkt_size_system.cpu00.dcache.mem_side::system.mem_ctrls.port        23040                       # Cumulative packet size per connected master and slave (bytes)
system.membus.pkt_size_system.cpu01.icache.mem_side::system.mem_ctrls.port         3136                       # Cumulative packet size per connected master and slave (bytes)
system.membus.pkt_size_system.cpu01.dcache.mem_side::system.mem_ctrls.port          960                       # Cumulative packet size per connected master and slave (bytes)
system.membus.pkt_size_system.cpu02.icache.mem_side::system.mem_ctrls.port         3264                       # Cumulative packet size per connected master and slave (bytes)
system.membus.pkt_size_system.cpu02.dcache.mem_side::system.mem_ctrls.port          960                       # Cumulative packet size per connected master and slave (bytes)
system.membus.pkt_size_system.cpu03.icache.mem_side::system.mem_ctrls.port         3200                       # Cumulative packet size per connected master and slave (bytes)
system.membus.pkt_size_system.cpu03.dcache.mem_side::system.mem_ctrls.port          960                       # Cumulative packet size per connected master and slave (bytes)
system.membus.pkt_size_system.cpu04.icache.mem_side::system.mem_ctrls.port         3072                       # Cumulative packet size per connected master and slave (bytes)
system.membus.pkt_size_system.cpu04.dcache.mem_side::system.mem_ctrls.port          960                       # Cumulative packet size per connected master and slave (bytes)
system.membus.pkt_size_system.cpu05.icache.mem_side::system.mem_ctrls.port         3200                       # Cumulative packet size per connected master and slave (bytes)
system.membus.pkt_size_system.cpu05.dcache.mem_side::system.mem_ctrls.port          960                       # Cumulative packet size per connected master and slave (bytes)
system.membus.pkt_size_system.cpu06.icache.mem_side::system.mem_ctrls.port         3264                       # Cumulative packet size per connected master and slave (bytes)
system.membus.pkt_size_system.cpu06.dcache.mem_side::system.mem_ctrls.port          960                       # Cumulative packet size per connected master and slave (bytes)
system.membus.pkt_size_system.cpu07.icache.mem_side::system.mem_ctrls.port         3136                       # Cumulative packet size per connected master and slave (bytes)
system.membus.pkt_size_system.cpu07.dcache.mem_side::system.mem_ctrls.port          960                       # Cumulative packet size per connected master and slave (bytes)
system.membus.pkt_size_system.cpu08.icache.mem_side::system.mem_ctrls.port         3136                       # Cumulative packet size per connected master and slave (bytes)
system.membus.pkt_size_system.cpu08.dcache.mem_side::system.mem_ctrls.port          960                       # Cumulative packet size per connected master and slave (bytes)
system.membus.pkt_size_system.cpu09.icache.mem_side::system.mem_ctrls.port         3264                       # Cumulative packet size per connected master and slave (bytes)
system.membus.pkt_size_system.cpu09.dcache.mem_side::system.mem_ctrls.port          960                       # Cumulative packet size per connected master and slave (bytes)
system.membus.pkt_size_system.cpu10.icache.mem_side::system.mem_ctrls.port         3392                       # Cumulative packet size per connected master and slave (bytes)
system.membus.pkt_size_system.cpu10.dcache.mem_side::system.mem_ctrls.port          960                       # Cumulative packet size per connected master and slave (bytes)
system.membus.pkt_size_system.cpu11.icache.mem_side::system.mem_ctrls.port         3264                       # Cumulative packet size per connected master and slave (bytes)
system.membus.pkt_size_system.cpu11.dcache.mem_side::system.mem_ctrls.port          960                       # Cumulative packet size per connected master and slave (bytes)
system.membus.pkt_size_system.cpu12.icache.mem_side::system.mem_ctrls.port         3392                       # Cumulative packet size per connected master and slave (bytes)
system.membus.pkt_size_system.cpu12.dcache.mem_side::system.mem_ctrls.port         1024                       # Cumulative packet size per connected master and slave (bytes)
system.membus.pkt_size_system.cpu13.icache.mem_side::system.mem_ctrls.port         3328                       # Cumulative packet size per connected master and slave (bytes)
system.membus.pkt_size_system.cpu13.dcache.mem_side::system.mem_ctrls.port          896                       # Cumulative packet size per connected master and slave (bytes)
system.membus.pkt_size_system.cpu14.icache.mem_side::system.mem_ctrls.port         3328                       # Cumulative packet size per connected master and slave (bytes)
system.membus.pkt_size_system.cpu14.dcache.mem_side::system.mem_ctrls.port          896                       # Cumulative packet size per connected master and slave (bytes)
system.membus.pkt_size_system.cpu15.icache.mem_side::system.mem_ctrls.port         3264                       # Cumulative packet size per connected master and slave (bytes)
system.membus.pkt_size_system.cpu15.dcache.mem_side::system.mem_ctrls.port          960                       # Cumulative packet size per connected master and slave (bytes)
system.membus.pkt_size::total                  125312                       # Cumulative packet size per connected master and slave (bytes)
system.membus.snoops                              515                       # Total snoops (count)
system.membus.snoop_fanout::samples              2494                       # Request fanout histogram
system.membus.snoop_fanout::mean                   31                       # Request fanout histogram
system.membus.snoop_fanout::stdev                   0                       # Request fanout histogram
system.membus.snoop_fanout::underflows              0      0.00%      0.00% # Request fanout histogram
system.membus.snoop_fanout::0                       0      0.00%      0.00% # Request fanout histogram
system.membus.snoop_fanout::1                       0      0.00%      0.00% # Request fanout histogram
system.membus.snoop_fanout::2                       0      0.00%      0.00% # Request fanout histogram
system.membus.snoop_fanout::3                       0      0.00%      0.00% # Request fanout histogram
system.membus.snoop_fanout::4                       0      0.00%      0.00% # Request fanout histogram
system.membus.snoop_fanout::5                       0      0.00%      0.00% # Request fanout histogram
system.membus.snoop_fanout::6                       0      0.00%      0.00% # Request fanout histogram
system.membus.snoop_fanout::7                       0      0.00%      0.00% # Request fanout histogram
system.membus.snoop_fanout::8                       0      0.00%      0.00% # Request fanout histogram
system.membus.snoop_fanout::9                       0      0.00%      0.00% # Request fanout histogram
system.membus.snoop_fanout::10                      0      0.00%      0.00% # Request fanout histogram
system.membus.snoop_fanout::11                      0      0.00%      0.00% # Request fanout histogram
system.membus.snoop_fanout::12                      0      0.00%      0.00% # Request fanout histogram
system.membus.snoop_fanout::13                      0      0.00%      0.00% # Request fanout histogram
system.membus.snoop_fanout::14                      0      0.00%      0.00% # Request fanout histogram
system.membus.snoop_fanout::15                      0      0.00%      0.00% # Request fanout histogram
system.membus.snoop_fanout::16                      0      0.00%      0.00% # Request fanout histogram
system.membus.snoop_fanout::17                      0      0.00%      0.00% # Request fanout histogram
system.membus.snoop_fanout::18                      0      0.00%      0.00% # Request fanout histogram
system.membus.snoop_fanout::19                      0      0.00%      0.00% # Request fanout histogram
system.membus.snoop_fanout::20                      0      0.00%      0.00% # Request fanout histogram
system.membus.snoop_fanout::21                      0      0.00%      0.00% # Request fanout histogram
system.membus.snoop_fanout::22                      0      0.00%      0.00% # Request fanout histogram
system.membus.snoop_fanout::23                      0      0.00%      0.00% # Request fanout histogram
system.membus.snoop_fanout::24                      0      0.00%      0.00% # Request fanout histogram
system.membus.snoop_fanout::25                      0      0.00%      0.00% # Request fanout histogram
system.membus.snoop_fanout::26                      0      0.00%      0.00% # Request fanout histogram
system.membus.snoop_fanout::27                      0      0.00%      0.00% # Request fanout histogram
system.membus.snoop_fanout::28                      0      0.00%      0.00% # Request fanout histogram
system.membus.snoop_fanout::29                      0      0.00%      0.00% # Request fanout histogram
system.membus.snoop_fanout::30                      0      0.00%      0.00% # Request fanout histogram
system.membus.snoop_fanout::31                   2494    100.00%    100.00% # Request fanout histogram
system.membus.snoop_fanout::32                      0      0.00%    100.00% # Request fanout histogram
system.membus.snoop_fanout::overflows               0      0.00%    100.00% # Request fanout histogram
system.membus.snoop_fanout::min_value              31                       # Request fanout histogram
system.membus.snoop_fanout::max_value              31                       # Request fanout histogram
system.membus.snoop_fanout::total                2494                       # Request fanout histogram
system.membus.reqLayer0.occupancy             3092500                       # Layer occupancy (ticks)
system.membus.reqLayer0.utilization               6.4                       # Layer utilization (%)
system.membus.respLayer1.occupancy            3273250                       # Layer occupancy (ticks)
system.membus.respLayer1.utilization              6.8                       # Layer utilization (%)
system.membus.respLayer2.occupancy            1901491                       # Layer occupancy (ticks)
system.membus.respLayer2.utilization              4.0                       # Layer utilization (%)
system.membus.respLayer5.occupancy             261500                       # Layer occupancy (ticks)
system.membus.respLayer5.utilization              0.5                       # Layer utilization (%)
system.membus.respLayer6.occupancy             242991                       # Layer occupancy (ticks)
system.membus.respLayer6.utilization              0.5                       # Layer utilization (%)
system.membus.respLayer9.occupancy             275250                       # Layer occupancy (ticks)
system.membus.respLayer9.utilization              0.6                       # Layer utilization (%)
system.membus.respLayer10.occupancy            279243                       # Layer occupancy (ticks)
system.membus.respLayer10.utilization             0.6                       # Layer utilization (%)
system.membus.respLayer13.occupancy            270000                       # Layer occupancy (ticks)
system.membus.respLayer13.utilization             0.6                       # Layer utilization (%)
system.membus.respLayer14.occupancy            296996                       # Layer occupancy (ticks)
system.membus.respLayer14.utilization             0.6                       # Layer utilization (%)
system.membus.respLayer17.occupancy            257000                       # Layer occupancy (ticks)
system.membus.respLayer17.utilization             0.5                       # Layer utilization (%)
system.membus.respLayer18.occupancy            262484                       # Layer occupancy (ticks)
system.membus.respLayer18.utilization             0.5                       # Layer utilization (%)
system.membus.respLayer21.occupancy            270750                       # Layer occupancy (ticks)
system.membus.respLayer21.utilization             0.6                       # Layer utilization (%)
system.membus.respLayer22.occupancy            232744                       # Layer occupancy (ticks)
system.membus.respLayer22.utilization             0.5                       # Layer utilization (%)
system.membus.respLayer25.occupancy            276250                       # Layer occupancy (ticks)
system.membus.respLayer25.utilization             0.6                       # Layer utilization (%)
system.membus.respLayer26.occupancy            237242                       # Layer occupancy (ticks)
system.membus.respLayer26.utilization             0.5                       # Layer utilization (%)
system.membus.respLayer29.occupancy            261000                       # Layer occupancy (ticks)
system.membus.respLayer29.utilization             0.5                       # Layer utilization (%)
system.membus.respLayer30.occupancy            225744                       # Layer occupancy (ticks)
system.membus.respLayer30.utilization             0.5                       # Layer utilization (%)
system.membus.respLayer33.occupancy            265750                       # Layer occupancy (ticks)
system.membus.respLayer33.utilization             0.6                       # Layer utilization (%)
system.membus.respLayer34.occupancy            258484                       # Layer occupancy (ticks)
system.membus.respLayer34.utilization             0.5                       # Layer utilization (%)
system.membus.respLayer37.occupancy            274000                       # Layer occupancy (ticks)
system.membus.respLayer37.utilization             0.6                       # Layer utilization (%)
system.membus.respLayer38.occupancy            247241                       # Layer occupancy (ticks)
system.membus.respLayer38.utilization             0.5                       # Layer utilization (%)
system.membus.respLayer41.occupancy            284500                       # Layer occupancy (ticks)
system.membus.respLayer41.utilization             0.6                       # Layer utilization (%)
system.membus.respLayer42.occupancy            207000                       # Layer occupancy (ticks)
system.membus.respLayer42.utilization             0.4                       # Layer utilization (%)
system.membus.respLayer45.occupancy            274500                       # Layer occupancy (ticks)
system.membus.respLayer45.utilization             0.6                       # Layer utilization (%)
system.membus.respLayer46.occupancy            227744                       # Layer occupancy (ticks)
system.membus.respLayer46.utilization             0.5                       # Layer utilization (%)
system.membus.respLayer49.occupancy            283250                       # Layer occupancy (ticks)
system.membus.respLayer49.utilization             0.6                       # Layer utilization (%)
system.membus.respLayer50.occupancy            201493                       # Layer occupancy (ticks)
system.membus.respLayer50.utilization             0.4                       # Layer utilization (%)
system.membus.respLayer53.occupancy            279750                       # Layer occupancy (ticks)
system.membus.respLayer53.utilization             0.6                       # Layer utilization (%)
system.membus.respLayer54.occupancy            206499                       # Layer occupancy (ticks)
system.membus.respLayer54.utilization             0.4                       # Layer utilization (%)
system.membus.respLayer57.occupancy            280500                       # Layer occupancy (ticks)
system.membus.respLayer57.utilization             0.6                       # Layer utilization (%)
system.membus.respLayer58.occupancy            221496                       # Layer occupancy (ticks)
system.membus.respLayer58.utilization             0.5                       # Layer utilization (%)
system.membus.respLayer61.occupancy            273500                       # Layer occupancy (ticks)
system.membus.respLayer61.utilization             0.6                       # Layer utilization (%)
system.membus.respLayer62.occupancy            184249                       # Layer occupancy (ticks)
system.membus.respLayer62.utilization             0.4                       # Layer utilization (%)

---------- End Simulation Statistics   ----------
