
---------- Begin Simulation Statistics ----------
sim_seconds                                  0.000035                       # Number of seconds simulated
sim_ticks                                    34622500                       # Number of ticks simulated
final_tick                                   34622500                       # Number of ticks from beginning of simulation (restored from checkpoints and never reset)
sim_freq                                 1000000000000                       # Frequency of simulated ticks
host_inst_rate                                 102772                       # Simulator instruction rate (inst/s)
host_op_rate                                   119430                       # Simulator op (including micro ops) rate (op/s)
host_tick_rate                              140869376                       # Simulator tick rate (ticks/s)
host_mem_usage                                 646676                       # Number of bytes of host memory used
host_seconds                                     0.25                       # Real time elapsed on the host
sim_insts                                       25255                       # Number of instructions simulated
sim_ops                                         29351                       # Number of ops (including micro ops) simulated
system.voltage_domain.voltage                       1                       # Voltage in Volts
system.clk_domain.clock                          1000                       # Clock period in ticks
system.mem_ctrls.bytes_read::cpu.inst           37248                       # Number of bytes read from this memory
system.mem_ctrls.bytes_read::cpu.data           19840                       # Number of bytes read from this memory
system.mem_ctrls.bytes_read::total              57088                       # Number of bytes read from this memory
system.mem_ctrls.bytes_inst_read::cpu.inst        37248                       # Number of instructions bytes read from this memory
system.mem_ctrls.bytes_inst_read::total         37248                       # Number of instructions bytes read from this memory
system.mem_ctrls.bytes_written::writebacks          256                       # Number of bytes written to this memory
system.mem_ctrls.bytes_written::total             256                       # Number of bytes written to this memory
system.mem_ctrls.num_reads::cpu.inst              582                       # Number of read requests responded to by this memory
system.mem_ctrls.num_reads::cpu.data              310                       # Number of read requests responded to by this memory
system.mem_ctrls.num_reads::total                 892                       # Number of read requests responded to by this memory
system.mem_ctrls.num_writes::writebacks             4                       # Number of write requests responded to by this memory
system.mem_ctrls.num_writes::total                  4                       # Number of write requests responded to by this memory
system.mem_ctrls.bw_read::cpu.inst         1075832190                       # Total read bandwidth from this memory (bytes/s)
system.mem_ctrls.bw_read::cpu.data          573037764                       # Total read bandwidth from this memory (bytes/s)
system.mem_ctrls.bw_read::total            1648869955                       # Total read bandwidth from this memory (bytes/s)
system.mem_ctrls.bw_inst_read::cpu.inst    1075832190                       # Instruction read bandwidth from this memory (bytes/s)
system.mem_ctrls.bw_inst_read::total       1075832190                       # Instruction read bandwidth from this memory (bytes/s)
system.mem_ctrls.bw_write::writebacks         7394036                       # Write bandwidth from this memory (bytes/s)
system.mem_ctrls.bw_write::total              7394036                       # Write bandwidth from this memory (bytes/s)
system.mem_ctrls.bw_total::writebacks         7394036                       # Total bandwidth to/from this memory (bytes/s)
system.mem_ctrls.bw_total::cpu.inst        1075832190                       # Total bandwidth to/from this memory (bytes/s)
system.mem_ctrls.bw_total::cpu.data         573037764                       # Total bandwidth to/from this memory (bytes/s)
system.mem_ctrls.bw_total::total           1656263990                       # Total bandwidth to/from this memory (bytes/s)
system.mem_ctrls.readReqs                         893                       # Number of read requests accepted
system.mem_ctrls.writeReqs                          4                       # Number of write requests accepted
system.mem_ctrls.readBursts                       893                       # Number of DRAM read bursts, including those serviced by the write queue
system.mem_ctrls.writeBursts                        4                       # Number of DRAM write bursts, including those merged in the write queue
system.mem_ctrls.bytesReadDRAM                  57024                       # Total number of bytes read from DRAM
system.mem_ctrls.bytesReadWrQ                     128                       # Total number of bytes read from write queue
system.mem_ctrls.bytesWritten                       0                       # Total number of bytes written to DRAM
system.mem_ctrls.bytesReadSys                   57152                       # Total read bytes from the system interface side
system.mem_ctrls.bytesWrittenSys                  256                       # Total written bytes from the system interface side
system.mem_ctrls.servicedByWrQ                      2                       # Number of DRAM read bursts serviced by the write queue
system.mem_ctrls.mergedWrBursts                     1                       # Number of DRAM write bursts merged with an existing one
system.mem_ctrls.neitherReadNorWriteReqs            0                       # Number of requests that are neither read nor write
system.mem_ctrls.perBankRdBursts::0               176                       # Per bank write bursts
system.mem_ctrls.perBankRdBursts::1               113                       # Per bank write bursts
system.mem_ctrls.perBankRdBursts::2               128                       # Per bank write bursts
system.mem_ctrls.perBankRdBursts::3               121                       # Per bank write bursts
system.mem_ctrls.perBankRdBursts::4                22                       # Per bank write bursts
system.mem_ctrls.perBankRdBursts::5                18                       # Per bank write bursts
system.mem_ctrls.perBankRdBursts::6                97                       # Per bank write bursts
system.mem_ctrls.perBankRdBursts::7                33                       # Per bank write bursts
system.mem_ctrls.perBankRdBursts::8                14                       # Per bank write bursts
system.mem_ctrls.perBankRdBursts::9                10                       # Per bank write bursts
system.mem_ctrls.perBankRdBursts::10                0                       # Per bank write bursts
system.mem_ctrls.perBankRdBursts::11               14                       # Per bank write bursts
system.mem_ctrls.perBankRdBursts::12                9                       # Per bank write bursts
system.mem_ctrls.perBankRdBursts::13               38                       # Per bank write bursts
system.mem_ctrls.perBankRdBursts::14               40                       # Per bank write bursts
system.mem_ctrls.perBankRdBursts::15               58                       # Per bank write bursts
system.mem_ctrls.perBankWrBursts::0                 0                       # Per bank write bursts
system.mem_ctrls.perBankWrBursts::1                 0                       # Per bank write bursts
system.mem_ctrls.perBankWrBursts::2                 0                       # Per bank write bursts
system.mem_ctrls.perBankWrBursts::3                 0                       # Per bank write bursts
system.mem_ctrls.perBankWrBursts::4                 0                       # Per bank write bursts
system.mem_ctrls.perBankWrBursts::5                 0                       # Per bank write bursts
system.mem_ctrls.perBankWrBursts::6                 0                       # Per bank write bursts
system.mem_ctrls.perBankWrBursts::7                 0                       # Per bank write bursts
system.mem_ctrls.perBankWrBursts::8                 0                       # Per bank write bursts
system.mem_ctrls.perBankWrBursts::9                 0                       # Per bank write bursts
system.mem_ctrls.perBankWrBursts::10                0                       # Per bank write bursts
system.mem_ctrls.perBankWrBursts::11                0                       # Per bank write bursts
system.mem_ctrls.perBankWrBursts::12                0                       # Per bank write bursts
system.mem_ctrls.perBankWrBursts::13                0                       # Per bank write bursts
system.mem_ctrls.perBankWrBursts::14                0                       # Per bank write bursts
system.mem_ctrls.perBankWrBursts::15                0                       # Per bank write bursts
system.mem_ctrls.numRdRetry                         0                       # Number of times read queue was full causing retry
system.mem_ctrls.numWrRetry                         0                       # Number of times write queue was full causing retry
system.mem_ctrls.totGap                      34615000                       # Total gap between requests
system.mem_ctrls.readPktSize::0                     0                       # Read request sizes (log2)
system.mem_ctrls.readPktSize::1                     0                       # Read request sizes (log2)
system.mem_ctrls.readPktSize::2                     0                       # Read request sizes (log2)
system.mem_ctrls.readPktSize::3                     0                       # Read request sizes (log2)
system.mem_ctrls.readPktSize::4                     0                       # Read request sizes (log2)
system.mem_ctrls.readPktSize::5                     0                       # Read request sizes (log2)
system.mem_ctrls.readPktSize::6                   893                       # Read request sizes (log2)
system.mem_ctrls.writePktSize::0                    0                       # Write request sizes (log2)
system.mem_ctrls.writePktSize::1                    0                       # Write request sizes (log2)
system.mem_ctrls.writePktSize::2                    0                       # Write request sizes (log2)
system.mem_ctrls.writePktSize::3                    0                       # Write request sizes (log2)
system.mem_ctrls.writePktSize::4                    0                       # Write request sizes (log2)
system.mem_ctrls.writePktSize::5                    0                       # Write request sizes (log2)
system.mem_ctrls.writePktSize::6                    4                       # Write request sizes (log2)
system.mem_ctrls.rdQLenPdf::0                     489                       # What read queue length does an incoming req see
system.mem_ctrls.rdQLenPdf::1                     283                       # What read queue length does an incoming req see
system.mem_ctrls.rdQLenPdf::2                      81                       # What read queue length does an incoming req see
system.mem_ctrls.rdQLenPdf::3                      26                       # What read queue length does an incoming req see
system.mem_ctrls.rdQLenPdf::4                       9                       # What read queue length does an incoming req see
system.mem_ctrls.rdQLenPdf::5                       3                       # What read queue length does an incoming req see
system.mem_ctrls.rdQLenPdf::6                       0                       # What read queue length does an incoming req see
system.mem_ctrls.rdQLenPdf::7                       0                       # What read queue length does an incoming req see
system.mem_ctrls.rdQLenPdf::8                       0                       # What read queue length does an incoming req see
system.mem_ctrls.rdQLenPdf::9                       0                       # What read queue length does an incoming req see
system.mem_ctrls.rdQLenPdf::10                      0                       # What read queue length does an incoming req see
system.mem_ctrls.rdQLenPdf::11                      0                       # What read queue length does an incoming req see
system.mem_ctrls.rdQLenPdf::12                      0                       # What read queue length does an incoming req see
system.mem_ctrls.rdQLenPdf::13                      0                       # What read queue length does an incoming req see
system.mem_ctrls.rdQLenPdf::14                      0                       # What read queue length does an incoming req see
system.mem_ctrls.rdQLenPdf::15                      0                       # What read queue length does an incoming req see
system.mem_ctrls.rdQLenPdf::16                      0                       # What read queue length does an incoming req see
system.mem_ctrls.rdQLenPdf::17                      0                       # What read queue length does an incoming req see
system.mem_ctrls.rdQLenPdf::18                      0                       # What read queue length does an incoming req see
system.mem_ctrls.rdQLenPdf::19                      0                       # What read queue length does an incoming req see
system.mem_ctrls.rdQLenPdf::20                      0                       # What read queue length does an incoming req see
system.mem_ctrls.rdQLenPdf::21                      0                       # What read queue length does an incoming req see
system.mem_ctrls.rdQLenPdf::22                      0                       # What read queue length does an incoming req see
system.mem_ctrls.rdQLenPdf::23                      0                       # What read queue length does an incoming req see
system.mem_ctrls.rdQLenPdf::24                      0                       # What read queue length does an incoming req see
system.mem_ctrls.rdQLenPdf::25                      0                       # What read queue length does an incoming req see
system.mem_ctrls.rdQLenPdf::26                      0                       # What read queue length does an incoming req see
system.mem_ctrls.rdQLenPdf::27                      0                       # What read queue length does an incoming req see
system.mem_ctrls.rdQLenPdf::28                      0                       # What read queue length does an incoming req see
system.mem_ctrls.rdQLenPdf::29                      0                       # What read queue length does an incoming req see
system.mem_ctrls.rdQLenPdf::30                      0                       # What read queue length does an incoming req see
system.mem_ctrls.rdQLenPdf::31                      0                       # What read queue length does an incoming req see
system.mem_ctrls.wrQLenPdf::0                       1                       # What write queue length does an incoming req see
system.mem_ctrls.wrQLenPdf::1                       1                       # What write queue length does an incoming req see
system.mem_ctrls.wrQLenPdf::2                       1                       # What write queue length does an incoming req see
system.mem_ctrls.wrQLenPdf::3                       0                       # What write queue length does an incoming req see
system.mem_ctrls.wrQLenPdf::4                       0                       # What write queue length does an incoming req see
system.mem_ctrls.wrQLenPdf::5                       0                       # What write queue length does an incoming req see
system.mem_ctrls.wrQLenPdf::6                       0                       # What write queue length does an incoming req see
system.mem_ctrls.wrQLenPdf::7                       0                       # What write queue length does an incoming req see
system.mem_ctrls.wrQLenPdf::8                       0                       # What write queue length does an incoming req see
system.mem_ctrls.wrQLenPdf::9                       0                       # What write queue length does an incoming req see
system.mem_ctrls.wrQLenPdf::10                      0                       # What write queue length does an incoming req see
system.mem_ctrls.wrQLenPdf::11                      0                       # What write queue length does an incoming req see
system.mem_ctrls.wrQLenPdf::12                      0                       # What write queue length does an incoming req see
system.mem_ctrls.wrQLenPdf::13                      0                       # What write queue length does an incoming req see
system.mem_ctrls.wrQLenPdf::14                      0                       # What write queue length does an incoming req see
system.mem_ctrls.wrQLenPdf::15                      0                       # What write queue length does an incoming req see
system.mem_ctrls.wrQLenPdf::16                      0                       # What write queue length does an incoming req see
system.mem_ctrls.wrQLenPdf::17                      0                       # What write queue length does an incoming req see
system.mem_ctrls.wrQLenPdf::18                      0                       # What write queue length does an incoming req see
system.mem_ctrls.wrQLenPdf::19                      0                       # What write queue length does an incoming req see
system.mem_ctrls.wrQLenPdf::20                      0                       # What write queue length does an incoming req see
system.mem_ctrls.wrQLenPdf::21                      0                       # What write queue length does an incoming req see
system.mem_ctrls.wrQLenPdf::22                      0                       # What write queue length does an incoming req see
system.mem_ctrls.wrQLenPdf::23                      0                       # What write queue length does an incoming req see
system.mem_ctrls.wrQLenPdf::24                      0                       # What write queue length does an incoming req see
system.mem_ctrls.wrQLenPdf::25                      0                       # What write queue length does an incoming req see
system.mem_ctrls.wrQLenPdf::26                      0                       # What write queue length does an incoming req see
system.mem_ctrls.wrQLenPdf::27                      0                       # What write queue length does an incoming req see
system.mem_ctrls.wrQLenPdf::28                      0                       # What write queue length does an incoming req see
system.mem_ctrls.wrQLenPdf::29                      0                       # What write queue length does an incoming req see
system.mem_ctrls.wrQLenPdf::30                      0                       # What write queue length does an incoming req see
system.mem_ctrls.wrQLenPdf::31                      0                       # What write queue length does an incoming req see
system.mem_ctrls.wrQLenPdf::32                      0                       # What write queue length does an incoming req see
system.mem_ctrls.wrQLenPdf::33                      0                       # What write queue length does an incoming req see
system.mem_ctrls.wrQLenPdf::34                      0                       # What write queue length does an incoming req see
system.mem_ctrls.wrQLenPdf::35                      0                       # What write queue length does an incoming req see
system.mem_ctrls.wrQLenPdf::36                      0                       # What write queue length does an incoming req see
system.mem_ctrls.wrQLenPdf::37                      0                       # What write queue length does an incoming req see
system.mem_ctrls.wrQLenPdf::38                      0                       # What write queue length does an incoming req see
system.mem_ctrls.wrQLenPdf::39                      0                       # What write queue length does an incoming req see
system.mem_ctrls.wrQLenPdf::40                      0                       # What write queue length does an incoming req see
system.mem_ctrls.wrQLenPdf::41                      0                       # What write queue length does an incoming req see
system.mem_ctrls.wrQLenPdf::42                      0                       # What write queue length does an incoming req see
system.mem_ctrls.wrQLenPdf::43                      0                       # What write queue length does an incoming req see
system.mem_ctrls.wrQLenPdf::44                      0                       # What write queue length does an incoming req see
system.mem_ctrls.wrQLenPdf::45                      0                       # What write queue length does an incoming req see
system.mem_ctrls.wrQLenPdf::46                      0                       # What write queue length does an incoming req see
system.mem_ctrls.wrQLenPdf::47                      0                       # What write queue length does an incoming req see
system.mem_ctrls.wrQLenPdf::48                      0                       # What write queue length does an incoming req see
system.mem_ctrls.wrQLenPdf::49                      0                       # What write queue length does an incoming req see
system.mem_ctrls.wrQLenPdf::50                      0                       # What write queue length does an incoming req see
system.mem_ctrls.wrQLenPdf::51                      0                       # What write queue length does an incoming req see
system.mem_ctrls.wrQLenPdf::52                      0                       # What write queue length does an incoming req see
system.mem_ctrls.wrQLenPdf::53                      0                       # What write queue length does an incoming req see
system.mem_ctrls.wrQLenPdf::54                      0                       # What write queue length does an incoming req see
system.mem_ctrls.wrQLenPdf::55                      0                       # What write queue length does an incoming req see
system.mem_ctrls.wrQLenPdf::56                      0                       # What write queue length does an incoming req see
system.mem_ctrls.wrQLenPdf::57                      0                       # What write queue length does an incoming req see
system.mem_ctrls.wrQLenPdf::58                      0                       # What write queue length does an incoming req see
system.mem_ctrls.wrQLenPdf::59                      0                       # What write queue length does an incoming req see
system.mem_ctrls.wrQLenPdf::60                      0                       # What write queue length does an incoming req see
system.mem_ctrls.wrQLenPdf::61                      0                       # What write queue length does an incoming req see
system.mem_ctrls.wrQLenPdf::62                      0                       # What write queue length does an incoming req see
system.mem_ctrls.wrQLenPdf::63                      0                       # What write queue length does an incoming req see
system.mem_ctrls.bytesPerActivate::samples          167                       # Bytes accessed per row activation
system.mem_ctrls.bytesPerActivate::mean    326.514970                       # Bytes accessed per row activation
system.mem_ctrls.bytesPerActivate::gmean   203.920618                       # Bytes accessed per row activation
system.mem_ctrls.bytesPerActivate::stdev   314.919455                       # Bytes accessed per row activation
system.mem_ctrls.bytesPerActivate::0-127           51     30.54%     30.54% # Bytes accessed per row activation
system.mem_ctrls.bytesPerActivate::128-255           42     25.15%     55.69% # Bytes accessed per row activation
system.mem_ctrls.bytesPerActivate::256-383           19     11.38%     67.07% # Bytes accessed per row activation
system.mem_ctrls.bytesPerActivate::384-511           12      7.19%     74.25% # Bytes accessed per row activation
system.mem_ctrls.bytesPerActivate::512-639           11      6.59%     80.84% # Bytes accessed per row activation
system.mem_ctrls.bytesPerActivate::640-767            8      4.79%     85.63% # Bytes accessed per row activation
system.mem_ctrls.bytesPerActivate::768-895            5      2.99%     88.62% # Bytes accessed per row activation
system.mem_ctrls.bytesPerActivate::896-1023            3      1.80%     90.42% # Bytes accessed per row activation
system.mem_ctrls.bytesPerActivate::1024-1151           16      9.58%    100.00% # Bytes accessed per row activation
system.mem_ctrls.bytesPerActivate::total          167                       # Bytes accessed per row activation
system.mem_ctrls.totQLat                      8533750                       # Total ticks spent queuing
system.mem_ctrls.totMemAccLat                25240000                       # Total ticks spent from burst creation until serviced by the DRAM
system.mem_ctrls.totBusLat                    4455000                       # Total ticks spent in databus transfers
system.mem_ctrls.avgQLat                      9577.72                       # Average queueing delay per DRAM burst
system.mem_ctrls.avgBusLat                    5000.00                       # Average bus latency per DRAM burst
system.mem_ctrls.avgMemAccLat                28327.72                       # Average memory access latency per DRAM burst
system.mem_ctrls.avgRdBW                      1647.02                       # Average DRAM read bandwidth in MiByte/s
system.mem_ctrls.avgWrBW                         0.00                       # Average achieved write bandwidth in MiByte/s
system.mem_ctrls.avgRdBWSys                   1650.72                       # Average system read bandwidth in MiByte/s
system.mem_ctrls.avgWrBWSys                      7.39                       # Average system write bandwidth in MiByte/s
system.mem_ctrls.peakBW                      12800.00                       # Theoretical peak bandwidth in MiByte/s
system.mem_ctrls.busUtil                        12.87                       # Data bus utilization in percentage
system.mem_ctrls.busUtilRead                    12.87                       # Data bus utilization in percentage for reads
system.mem_ctrls.busUtilWrite                    0.00                       # Data bus utilization in percentage for writes
system.mem_ctrls.avgRdQLen                       1.72                       # Average read queue length when enqueuing
system.mem_ctrls.avgWrQLen                       0.72                       # Average write queue length when enqueuing
system.mem_ctrls.readRowHits                      712                       # Number of row buffer hits during reads
system.mem_ctrls.writeRowHits                       0                       # Number of row buffer hits during writes
system.mem_ctrls.readRowHitRate                 79.91                       # Row buffer hit rate for reads
system.mem_ctrls.writeRowHitRate                 0.00                       # Row buffer hit rate for writes
system.mem_ctrls.avgGap                      38589.74                       # Average gap between requests
system.mem_ctrls.pageHitRate                    79.64                       # Row buffer hit rate, read and write combined
system.mem_ctrls_0.actEnergy                   982800                       # Energy for activate commands per rank (pJ)
system.mem_ctrls_0.preEnergy                   536250                       # Energy for precharge commands per rank (pJ)
system.mem_ctrls_0.readEnergy                 5155800                       # Energy for read commands per rank (pJ)
system.mem_ctrls_0.writeEnergy                      0                       # Energy for write commands per rank (pJ)
system.mem_ctrls_0.refreshEnergy              2034240                       # Energy for refresh commands per rank (pJ)
system.mem_ctrls_0.actBackEnergy             21315150                       # Energy for active background per rank (pJ)
system.mem_ctrls_0.preBackEnergy               145500                       # Energy for precharge background per rank (pJ)
system.mem_ctrls_0.totalEnergy               30169740                       # Total energy per rank (pJ)
system.mem_ctrls_0.averagePower            960.666773                       # Core power per rank (mW)
system.mem_ctrls_0.memoryStateTime::IDLE       146000                       # Time in different power states
system.mem_ctrls_0.memoryStateTime::REF       1040000                       # Time in different power states
system.mem_ctrls_0.memoryStateTime::PRE_PDN            0                       # Time in different power states
system.mem_ctrls_0.memoryStateTime::ACT      30232750                       # Time in different power states
system.mem_ctrls_0.memoryStateTime::ACT_PDN            0                       # Time in different power states
system.mem_ctrls_1.actEnergy                   204120                       # Energy for activate commands per rank (pJ)
system.mem_ctrls_1.preEnergy                   111375                       # Energy for precharge commands per rank (pJ)
system.mem_ctrls_1.readEnergy                 1099800                       # Energy for read commands per rank (pJ)
system.mem_ctrls_1.writeEnergy                      0                       # Energy for write commands per rank (pJ)
system.mem_ctrls_1.refreshEnergy              2034240                       # Energy for refresh commands per rank (pJ)
system.mem_ctrls_1.actBackEnergy             21083445                       # Energy for active background per rank (pJ)
system.mem_ctrls_1.preBackEnergy               348750                       # Energy for precharge background per rank (pJ)
system.mem_ctrls_1.totalEnergy               24881730                       # Total energy per rank (pJ)
system.mem_ctrls_1.averagePower            792.285623                       # Core power per rank (mW)
system.mem_ctrls_1.memoryStateTime::IDLE      1155500                       # Time in different power states
system.mem_ctrls_1.memoryStateTime::REF       1040000                       # Time in different power states
system.mem_ctrls_1.memoryStateTime::PRE_PDN            0                       # Time in different power states
system.mem_ctrls_1.memoryStateTime::ACT      29894000                       # Time in different power states
system.mem_ctrls_1.memoryStateTime::ACT_PDN            0                       # Time in different power states
system.cpu.branchPred.lookups                    7664                       # Number of BP lookups
system.cpu.branchPred.condPredicted              5688                       # Number of conditional branches predicted
system.cpu.branchPred.condIncorrect               900                       # Number of conditional branches incorrect
system.cpu.branchPred.BTBLookups                 5790                       # Number of BTB lookups
system.cpu.branchPred.BTBHits                    2804                       # Number of BTB hits
system.cpu.branchPred.BTBCorrect                    0                       # Number of correct BTB predictions (this stat may not work properly.
system.cpu.branchPred.BTBHitPct             48.428325                       # BTB Hit Percentage
system.cpu.branchPred.usedRAS                     759                       # Number of times the RAS was used to get a target.
system.cpu.branchPred.RASInCorrect                 12                       # Number of incorrect RAS predictions.
system.cpu_voltage_domain.voltage                   1                       # Voltage in Volts
system.cpu_clk_domain.clock                       500                       # Clock period in ticks
system.cpu.dstage2_mmu.stage2_tlb.walker.walks            0                       # Table walker walks requested
system.cpu.dstage2_mmu.stage2_tlb.walker.walkRequestOrigin_Requested::Data            0                       # Table walker requests started/completed, data/inst
system.cpu.dstage2_mmu.stage2_tlb.walker.walkRequestOrigin_Requested::Inst            0                       # Table walker requests started/completed, data/inst
system.cpu.dstage2_mmu.stage2_tlb.walker.walkRequestOrigin_Requested::total            0                       # Table walker requests started/completed, data/inst
system.cpu.dstage2_mmu.stage2_tlb.walker.walkRequestOrigin_Completed::Data            0                       # Table walker requests started/completed, data/inst
system.cpu.dstage2_mmu.stage2_tlb.walker.walkRequestOrigin_Completed::Inst            0                       # Table walker requests started/completed, data/inst
system.cpu.dstage2_mmu.stage2_tlb.walker.walkRequestOrigin_Completed::total            0                       # Table walker requests started/completed, data/inst
system.cpu.dstage2_mmu.stage2_tlb.walker.walkRequestOrigin::total            0                       # Table walker requests started/completed, data/inst
system.cpu.dstage2_mmu.stage2_tlb.inst_hits            0                       # ITB inst hits
system.cpu.dstage2_mmu.stage2_tlb.inst_misses            0                       # ITB inst misses
system.cpu.dstage2_mmu.stage2_tlb.read_hits            0                       # DTB read hits
system.cpu.dstage2_mmu.stage2_tlb.read_misses            0                       # DTB read misses
system.cpu.dstage2_mmu.stage2_tlb.write_hits            0                       # DTB write hits
system.cpu.dstage2_mmu.stage2_tlb.write_misses            0                       # DTB write misses
system.cpu.dstage2_mmu.stage2_tlb.flush_tlb            0                       # Number of times complete TLB was flushed
system.cpu.dstage2_mmu.stage2_tlb.flush_tlb_mva            0                       # Number of times TLB was flushed by MVA
system.cpu.dstage2_mmu.stage2_tlb.flush_tlb_mva_asid            0                       # Number of times TLB was flushed by MVA & ASID
system.cpu.dstage2_mmu.stage2_tlb.flush_tlb_asid            0                       # Number of times TLB was flushed by ASID
system.cpu.dstage2_mmu.stage2_tlb.flush_entries            0                       # Number of entries that have been flushed from TLB
system.cpu.dstage2_mmu.stage2_tlb.align_faults            0                       # Number of TLB faults due to alignment restrictions
system.cpu.dstage2_mmu.stage2_tlb.prefetch_faults            0                       # Number of TLB faults due to prefetch
system.cpu.dstage2_mmu.stage2_tlb.domain_faults            0                       # Number of TLB faults due to domain restrictions
system.cpu.dstage2_mmu.stage2_tlb.perms_faults            0                       # Number of TLB faults due to permissions restrictions
system.cpu.dstage2_mmu.stage2_tlb.read_accesses            0                       # DTB read accesses
system.cpu.dstage2_mmu.stage2_tlb.write_accesses            0                       # DTB write accesses
system.cpu.dstage2_mmu.stage2_tlb.inst_accesses            0                       # ITB inst accesses
system.cpu.dstage2_mmu.stage2_tlb.hits              0                       # DTB hits
system.cpu.dstage2_mmu.stage2_tlb.misses            0                       # DTB misses
system.cpu.dstage2_mmu.stage2_tlb.accesses            0                       # DTB accesses
system.cpu.dtb.walker.walks                         0                       # Table walker walks requested
system.cpu.dtb.walker.walkRequestOrigin_Requested::Data            0                       # Table walker requests started/completed, data/inst
system.cpu.dtb.walker.walkRequestOrigin_Requested::Inst            0                       # Table walker requests started/completed, data/inst
system.cpu.dtb.walker.walkRequestOrigin_Requested::total            0                       # Table walker requests started/completed, data/inst
system.cpu.dtb.walker.walkRequestOrigin_Completed::Data            0                       # Table walker requests started/completed, data/inst
system.cpu.dtb.walker.walkRequestOrigin_Completed::Inst            0                       # Table walker requests started/completed, data/inst
system.cpu.dtb.walker.walkRequestOrigin_Completed::total            0                       # Table walker requests started/completed, data/inst
system.cpu.dtb.walker.walkRequestOrigin::total            0                       # Table walker requests started/completed, data/inst
system.cpu.dtb.inst_hits                            0                       # ITB inst hits
system.cpu.dtb.inst_misses                          0                       # ITB inst misses
system.cpu.dtb.read_hits                            0                       # DTB read hits
system.cpu.dtb.read_misses                          0                       # DTB read misses
system.cpu.dtb.write_hits                           0                       # DTB write hits
system.cpu.dtb.write_misses                         0                       # DTB write misses
system.cpu.dtb.flush_tlb                            0                       # Number of times complete TLB was flushed
system.cpu.dtb.flush_tlb_mva                        0                       # Number of times TLB was flushed by MVA
system.cpu.dtb.flush_tlb_mva_asid                   0                       # Number of times TLB was flushed by MVA & ASID
system.cpu.dtb.flush_tlb_asid                       0                       # Number of times TLB was flushed by ASID
system.cpu.dtb.flush_entries                        0                       # Number of entries that have been flushed from TLB
system.cpu.dtb.align_faults                         0                       # Number of TLB faults due to alignment restrictions
system.cpu.dtb.prefetch_faults                      0                       # Number of TLB faults due to prefetch
system.cpu.dtb.domain_faults                        0                       # Number of TLB faults due to domain restrictions
system.cpu.dtb.perms_faults                         0                       # Number of TLB faults due to permissions restrictions
system.cpu.dtb.read_accesses                        0                       # DTB read accesses
system.cpu.dtb.write_accesses                       0                       # DTB write accesses
system.cpu.dtb.inst_accesses                        0                       # ITB inst accesses
system.cpu.dtb.hits                                 0                       # DTB hits
system.cpu.dtb.misses                               0                       # DTB misses
system.cpu.dtb.accesses                             0                       # DTB accesses
system.cpu.istage2_mmu.stage2_tlb.walker.walks            0                       # Table walker walks requested
system.cpu.istage2_mmu.stage2_tlb.walker.walkRequestOrigin_Requested::Data            0                       # Table walker requests started/completed, data/inst
system.cpu.istage2_mmu.stage2_tlb.walker.walkRequestOrigin_Requested::Inst            0                       # Table walker requests started/completed, data/inst
system.cpu.istage2_mmu.stage2_tlb.walker.walkRequestOrigin_Requested::total            0                       # Table walker requests started/completed, data/inst
system.cpu.istage2_mmu.stage2_tlb.walker.walkRequestOrigin_Completed::Data            0                       # Table walker requests started/completed, data/inst
system.cpu.istage2_mmu.stage2_tlb.walker.walkRequestOrigin_Completed::Inst            0                       # Table walker requests started/completed, data/inst
system.cpu.istage2_mmu.stage2_tlb.walker.walkRequestOrigin_Completed::total            0                       # Table walker requests started/completed, data/inst
system.cpu.istage2_mmu.stage2_tlb.walker.walkRequestOrigin::total            0                       # Table walker requests started/completed, data/inst
system.cpu.istage2_mmu.stage2_tlb.inst_hits            0                       # ITB inst hits
system.cpu.istage2_mmu.stage2_tlb.inst_misses            0                       # ITB inst misses
system.cpu.istage2_mmu.stage2_tlb.read_hits            0                       # DTB read hits
system.cpu.istage2_mmu.stage2_tlb.read_misses            0                       # DTB read misses
system.cpu.istage2_mmu.stage2_tlb.write_hits            0                       # DTB write hits
system.cpu.istage2_mmu.stage2_tlb.write_misses            0                       # DTB write misses
system.cpu.istage2_mmu.stage2_tlb.flush_tlb            0                       # Number of times complete TLB was flushed
system.cpu.istage2_mmu.stage2_tlb.flush_tlb_mva            0                       # Number of times TLB was flushed by MVA
system.cpu.istage2_mmu.stage2_tlb.flush_tlb_mva_asid            0                       # Number of times TLB was flushed by MVA & ASID
system.cpu.istage2_mmu.stage2_tlb.flush_tlb_asid            0                       # Number of times TLB was flushed by ASID
system.cpu.istage2_mmu.stage2_tlb.flush_entries            0                       # Number of entries that have been flushed from TLB
system.cpu.istage2_mmu.stage2_tlb.align_faults            0                       # Number of TLB faults due to alignment restrictions
system.cpu.istage2_mmu.stage2_tlb.prefetch_faults            0                       # Number of TLB faults due to prefetch
system.cpu.istage2_mmu.stage2_tlb.domain_faults            0                       # Number of TLB faults due to domain restrictions
system.cpu.istage2_mmu.stage2_tlb.perms_faults            0                       # Number of TLB faults due to permissions restrictions
system.cpu.istage2_mmu.stage2_tlb.read_accesses            0                       # DTB read accesses
system.cpu.istage2_mmu.stage2_tlb.write_accesses            0                       # DTB write accesses
system.cpu.istage2_mmu.stage2_tlb.inst_accesses            0                       # ITB inst accesses
system.cpu.istage2_mmu.stage2_tlb.hits              0                       # DTB hits
system.cpu.istage2_mmu.stage2_tlb.misses            0                       # DTB misses
system.cpu.istage2_mmu.stage2_tlb.accesses            0                       # DTB accesses
system.cpu.itb.walker.walks                         0                       # Table walker walks requested
system.cpu.itb.walker.walkRequestOrigin_Requested::Data            0                       # Table walker requests started/completed, data/inst
system.cpu.itb.walker.walkRequestOrigin_Requested::Inst            0                       # Table walker requests started/completed, data/inst
system.cpu.itb.walker.walkRequestOrigin_Requested::total            0                       # Table walker requests started/completed, data/inst
system.cpu.itb.walker.walkRequestOrigin_Completed::Data            0                       # Table walker requests started/completed, data/inst
system.cpu.itb.walker.walkRequestOrigin_Completed::Inst            0                       # Table walker requests started/completed, data/inst
system.cpu.itb.walker.walkRequestOrigin_Completed::total            0                       # Table walker requests started/completed, data/inst
system.cpu.itb.walker.walkRequestOrigin::total            0                       # Table walker requests started/completed, data/inst
system.cpu.itb.inst_hits                            0                       # ITB inst hits
system.cpu.itb.inst_misses                          0                       # ITB inst misses
system.cpu.itb.read_hits                            0                       # DTB read hits
system.cpu.itb.read_misses                          0                       # DTB read misses
system.cpu.itb.write_hits                           0                       # DTB write hits
system.cpu.itb.write_misses                         0                       # DTB write misses
system.cpu.itb.flush_tlb                            0                       # Number of times complete TLB was flushed
system.cpu.itb.flush_tlb_mva                        0                       # Number of times TLB was flushed by MVA
system.cpu.itb.flush_tlb_mva_asid                   0                       # Number of times TLB was flushed by MVA & ASID
system.cpu.itb.flush_tlb_asid                       0                       # Number of times TLB was flushed by ASID
system.cpu.itb.flush_entries                        0                       # Number of entries that have been flushed from TLB
system.cpu.itb.align_faults                         0                       # Number of TLB faults due to alignment restrictions
system.cpu.itb.prefetch_faults                      0                       # Number of TLB faults due to prefetch
system.cpu.itb.domain_faults                        0                       # Number of TLB faults due to domain restrictions
system.cpu.itb.perms_faults                         0                       # Number of TLB faults due to permissions restrictions
system.cpu.itb.read_accesses                        0                       # DTB read accesses
system.cpu.itb.write_accesses                       0                       # DTB write accesses
system.cpu.itb.inst_accesses                        0                       # ITB inst accesses
system.cpu.itb.hits                                 0                       # DTB hits
system.cpu.itb.misses                               0                       # DTB misses
system.cpu.itb.accesses                             0                       # DTB accesses
system.cpu.workload.num_syscalls                   15                       # Number of system calls
system.cpu.numCycles                            69246                       # number of cpu cycles simulated
system.cpu.numWorkItemsStarted                      0                       # number of work items this cpu started
system.cpu.numWorkItemsCompleted                    0                       # number of work items this cpu completed
system.cpu.fetch.icacheStallCycles              18250                       # Number of cycles fetch is stalled on an Icache miss
system.cpu.fetch.Insts                          45263                       # Number of instructions fetch has processed
system.cpu.fetch.Branches                        7664                       # Number of branches that fetch encountered
system.cpu.fetch.predictedBranches               3563                       # Number of branches that fetch has predicted taken
system.cpu.fetch.Cycles                         17819                       # Number of cycles fetch has run and was not squashing or blocked
system.cpu.fetch.SquashCycles                    1899                       # Number of cycles fetch has spent squashing
system.cpu.fetch.MiscStallCycles                    1                       # Number of cycles fetch has spent waiting on interrupts, or bad addresses, or out of MSHRs
system.cpu.fetch.CacheLines                      5950                       # Number of cache lines fetched
system.cpu.fetch.IcacheSquashes                   602                       # Number of outstanding Icache misses that were squashed
system.cpu.fetch.rateDist::samples              37019                       # Number of instructions fetched each cycle (Total)
system.cpu.fetch.rateDist::mean              1.410465                       # Number of instructions fetched each cycle (Total)
system.cpu.fetch.rateDist::stdev             2.793049                       # Number of instructions fetched each cycle (Total)
system.cpu.fetch.rateDist::underflows               0      0.00%      0.00% # Number of instructions fetched each cycle (Total)
system.cpu.fetch.rateDist::0                    28193     76.16%     76.16% # Number of instructions fetched each cycle (Total)
system.cpu.fetch.rateDist::1                      638      1.72%     77.88% # Number of instructions fetched each cycle (Total)
system.cpu.fetch.rateDist::2                      813      2.20%     80.08% # Number of instructions fetched each cycle (Total)
system.cpu.fetch.rateDist::3                      570      1.54%     81.62% # Number of instructions fetched each cycle (Total)
system.cpu.fetch.rateDist::4                      584      1.58%     83.20% # Number of instructions fetched each cycle (Total)
system.cpu.fetch.rateDist::5                      455      1.23%     84.42% # Number of instructions fetched each cycle (Total)
system.cpu.fetch.rateDist::6                      575      1.55%     85.98% # Number of instructions fetched each cycle (Total)
system.cpu.fetch.rateDist::7                     1349      3.64%     89.62% # Number of instructions fetched each cycle (Total)
system.cpu.fetch.rateDist::8                     3842     10.38%    100.00% # Number of instructions fetched each cycle (Total)
system.cpu.fetch.rateDist::overflows                0      0.00%    100.00% # Number of instructions fetched each cycle (Total)
system.cpu.fetch.rateDist::min_value                0                       # Number of instructions fetched each cycle (Total)
system.cpu.fetch.rateDist::max_value                8                       # Number of instructions fetched each cycle (Total)
system.cpu.fetch.rateDist::total                37019                       # Number of instructions fetched each cycle (Total)
system.cpu.fetch.branchRate                  0.110678                       # Number of branch fetches per cycle
system.cpu.fetch.rate                        0.653655                       # Number of inst fetches per cycle
system.cpu.decode.IdleCycles                    14387                       # Number of cycles decode is idle
system.cpu.decode.BlockedCycles                 14342                       # Number of cycles decode is blocked
system.cpu.decode.RunCycles                      6839                       # Number of cycles decode is running
system.cpu.decode.UnblockCycles                   784                       # Number of cycles decode is unblocking
system.cpu.decode.SquashCycles                    667                       # Number of cycles decode is squashing
system.cpu.decode.BranchResolved                  809                       # Number of times decode resolved a branch
system.cpu.decode.BranchMispred                   292                       # Number of times decode detected a branch misprediction
system.cpu.decode.DecodedInsts                  46338                       # Number of instructions handled by decode
system.cpu.decode.SquashedInsts                  1059                       # Number of squashed instructions handled by decode
system.cpu.rename.SquashCycles                    667                       # Number of cycles rename is squashing
system.cpu.rename.IdleCycles                    15028                       # Number of cycles rename is idle
system.cpu.rename.BlockCycles                    2293                       # Number of cycles rename is blocking
system.cpu.rename.serializeStallCycles           6449                       # count of cycles rename stalled for serializing inst
system.cpu.rename.RunCycles                      6940                       # Number of cycles rename is running
system.cpu.rename.UnblockCycles                  5642                       # Number of cycles rename is unblocking
system.cpu.rename.RenamedInsts                  44707                       # Number of instructions processed by rename
system.cpu.rename.ROBFullEvents                     2                       # Number of times rename has blocked due to ROB full
system.cpu.rename.IQFullEvents                    320                       # Number of times rename has blocked due to IQ full
system.cpu.rename.LQFullEvents                    252                       # Number of times rename has blocked due to LQ full
system.cpu.rename.SQFullEvents                   4844                       # Number of times rename has blocked due to SQ full
system.cpu.rename.RenamedOperands               50225                       # Number of destination operands rename has renamed
system.cpu.rename.RenameLookups                211155                       # Number of register rename lookups that rename has made
system.cpu.rename.int_rename_lookups            57691                       # Number of integer rename lookups
system.cpu.rename.fp_rename_lookups                22                       # Number of floating rename lookups
system.cpu.rename.CommittedMaps                 33027                       # Number of HB maps that are committed
system.cpu.rename.UndoneMaps                    17198                       # Number of HB maps that are undone due to squashing
system.cpu.rename.serializingInsts                113                       # count of serializing insts renamed
system.cpu.rename.tempSerializingInsts            112                       # count of temporary serializing insts renamed
system.cpu.rename.skidInsts                      3311                       # count of insts added to the skid buffer
system.cpu.memDep0.insertedLoads                 8070                       # Number of loads inserted to the mem dependence unit.
system.cpu.memDep0.insertedStores                5762                       # Number of stores inserted to the mem dependence unit.
system.cpu.memDep0.conflictingLoads               679                       # Number of conflicting loads.
system.cpu.memDep0.conflictingStores              497                       # Number of conflicting stores.
system.cpu.iq.iqInstsAdded                      41967                       # Number of instructions added to the IQ (excludes non-spec)
system.cpu.iq.iqNonSpecInstsAdded                 244                       # Number of non-speculative instructions added to the IQ
system.cpu.iq.iqInstsIssued                     35211                       # Number of instructions issued
system.cpu.iq.iqSquashedInstsIssued               422                       # Number of squashed instructions issued
system.cpu.iq.iqSquashedInstsExamined           12860                       # Number of squashed instructions iterated over during squash; mainly for profiling
system.cpu.iq.iqSquashedOperandsExamined        38936                       # Number of squashed operands that are examined and possibly removed from graph
system.cpu.iq.iqSquashedNonSpecRemoved             69                       # Number of squashed non-spec instructions that were removed
system.cpu.iq.issued_per_cycle::samples         37019                       # Number of insts issued each cycle
system.cpu.iq.issued_per_cycle::mean         0.951160                       # Number of insts issued each cycle
system.cpu.iq.issued_per_cycle::stdev        1.520047                       # Number of insts issued each cycle
system.cpu.iq.issued_per_cycle::underflows            0      0.00%      0.00% # Number of insts issued each cycle
system.cpu.iq.issued_per_cycle::0               24550     66.32%     66.32% # Number of insts issued each cycle
system.cpu.iq.issued_per_cycle::1                3062      8.27%     74.59% # Number of insts issued each cycle
system.cpu.iq.issued_per_cycle::2                1901      5.14%     79.72% # Number of insts issued each cycle
system.cpu.iq.issued_per_cycle::3                1677      4.53%     84.25% # Number of insts issued each cycle
system.cpu.iq.issued_per_cycle::4                5829     15.75%    100.00% # Number of insts issued each cycle
system.cpu.iq.issued_per_cycle::overflows            0      0.00%    100.00% # Number of insts issued each cycle
system.cpu.iq.issued_per_cycle::min_value            0                       # Number of insts issued each cycle
system.cpu.iq.issued_per_cycle::max_value            4                       # Number of insts issued each cycle
system.cpu.iq.issued_per_cycle::total           37019                       # Number of insts issued each cycle
system.cpu.iq.fu_full::No_OpClass                   0      0.00%      0.00% # attempts to use FU when none available
system.cpu.iq.fu_full::IntAlu                       0      0.00%      0.00% # attempts to use FU when none available
system.cpu.iq.fu_full::IntMult                     34    100.00%    100.00% # attempts to use FU when none available
system.cpu.iq.fu_full::IntDiv                       0      0.00%    100.00% # attempts to use FU when none available
system.cpu.iq.fu_full::FloatAdd                     0      0.00%    100.00% # attempts to use FU when none available
system.cpu.iq.fu_full::FloatCmp                     0      0.00%    100.00% # attempts to use FU when none available
system.cpu.iq.fu_full::FloatCvt                     0      0.00%    100.00% # attempts to use FU when none available
system.cpu.iq.fu_full::FloatMult                    0      0.00%    100.00% # attempts to use FU when none available
system.cpu.iq.fu_full::FloatDiv                     0      0.00%    100.00% # attempts to use FU when none available
system.cpu.iq.fu_full::FloatSqrt                    0      0.00%    100.00% # attempts to use FU when none available
system.cpu.iq.fu_full::SimdAdd                      0      0.00%    100.00% # attempts to use FU when none available
system.cpu.iq.fu_full::SimdAddAcc                   0      0.00%    100.00% # attempts to use FU when none available
system.cpu.iq.fu_full::SimdAlu                      0      0.00%    100.00% # attempts to use FU when none available
system.cpu.iq.fu_full::SimdCmp                      0      0.00%    100.00% # attempts to use FU when none available
system.cpu.iq.fu_full::SimdCvt                      0      0.00%    100.00% # attempts to use FU when none available
system.cpu.iq.fu_full::SimdMisc                     0      0.00%    100.00% # attempts to use FU when none available
system.cpu.iq.fu_full::SimdMult                     0      0.00%    100.00% # attempts to use FU when none available
system.cpu.iq.fu_full::SimdMultAcc                  0      0.00%    100.00% # attempts to use FU when none available
system.cpu.iq.fu_full::SimdShift                    0      0.00%    100.00% # attempts to use FU when none available
system.cpu.iq.fu_full::SimdShiftAcc                 0      0.00%    100.00% # attempts to use FU when none available
system.cpu.iq.fu_full::SimdSqrt                     0      0.00%    100.00% # attempts to use FU when none available
system.cpu.iq.fu_full::SimdFloatAdd                 0      0.00%    100.00% # attempts to use FU when none available
system.cpu.iq.fu_full::SimdFloatAlu                 0      0.00%    100.00% # attempts to use FU when none available
system.cpu.iq.fu_full::SimdFloatCmp                 0      0.00%    100.00% # attempts to use FU when none available
system.cpu.iq.fu_full::SimdFloatCvt                 0      0.00%    100.00% # attempts to use FU when none available
system.cpu.iq.fu_full::SimdFloatDiv                 0      0.00%    100.00% # attempts to use FU when none available
system.cpu.iq.fu_full::SimdFloatMisc                0      0.00%    100.00% # attempts to use FU when none available
system.cpu.iq.fu_full::SimdFloatMult                0      0.00%    100.00% # attempts to use FU when none available
system.cpu.iq.fu_full::SimdFloatMultAcc             0      0.00%    100.00% # attempts to use FU when none available
system.cpu.iq.fu_full::SimdFloatSqrt                0      0.00%    100.00% # attempts to use FU when none available
system.cpu.iq.fu_full::MemRead                      0      0.00%    100.00% # attempts to use FU when none available
system.cpu.iq.fu_full::MemWrite                     0      0.00%    100.00% # attempts to use FU when none available
system.cpu.iq.fu_full::IprAccess                    0      0.00%    100.00% # attempts to use FU when none available
system.cpu.iq.fu_full::InstPrefetch                 0      0.00%    100.00% # attempts to use FU when none available
system.cpu.iq.FU_type_0::No_OpClass                 0      0.00%      0.00% # Type of FU issued
system.cpu.iq.FU_type_0::IntAlu                 21500     61.06%     61.06% # Type of FU issued
system.cpu.iq.FU_type_0::IntMult                 1696      4.82%     65.88% # Type of FU issued
system.cpu.iq.FU_type_0::IntDiv                     0      0.00%     65.88% # Type of FU issued
system.cpu.iq.FU_type_0::FloatAdd                   0      0.00%     65.88% # Type of FU issued
system.cpu.iq.FU_type_0::FloatCmp                   0      0.00%     65.88% # Type of FU issued
system.cpu.iq.FU_type_0::FloatCvt                   0      0.00%     65.88% # Type of FU issued
system.cpu.iq.FU_type_0::FloatMult                  0      0.00%     65.88% # Type of FU issued
system.cpu.iq.FU_type_0::FloatDiv                   0      0.00%     65.88% # Type of FU issued
system.cpu.iq.FU_type_0::FloatSqrt                  0      0.00%     65.88% # Type of FU issued
system.cpu.iq.FU_type_0::SimdAdd                    0      0.00%     65.88% # Type of FU issued
system.cpu.iq.FU_type_0::SimdAddAcc                 0      0.00%     65.88% # Type of FU issued
system.cpu.iq.FU_type_0::SimdAlu                    0      0.00%     65.88% # Type of FU issued
system.cpu.iq.FU_type_0::SimdCmp                    0      0.00%     65.88% # Type of FU issued
system.cpu.iq.FU_type_0::SimdCvt                    0      0.00%     65.88% # Type of FU issued
system.cpu.iq.FU_type_0::SimdMisc                   0      0.00%     65.88% # Type of FU issued
system.cpu.iq.FU_type_0::SimdMult                   0      0.00%     65.88% # Type of FU issued
system.cpu.iq.FU_type_0::SimdMultAcc                0      0.00%     65.88% # Type of FU issued
system.cpu.iq.FU_type_0::SimdShift                  0      0.00%     65.88% # Type of FU issued
system.cpu.iq.FU_type_0::SimdShiftAcc               0      0.00%     65.88% # Type of FU issued
system.cpu.iq.FU_type_0::SimdSqrt                   0      0.00%     65.88% # Type of FU issued
system.cpu.iq.FU_type_0::SimdFloatAdd               0      0.00%     65.88% # Type of FU issued
system.cpu.iq.FU_type_0::SimdFloatAlu               0      0.00%     65.88% # Type of FU issued
system.cpu.iq.FU_type_0::SimdFloatCmp               0      0.00%     65.88% # Type of FU issued
system.cpu.iq.FU_type_0::SimdFloatCvt               0      0.00%     65.88% # Type of FU issued
system.cpu.iq.FU_type_0::SimdFloatDiv               0      0.00%     65.88% # Type of FU issued
system.cpu.iq.FU_type_0::SimdFloatMisc              3      0.01%     65.89% # Type of FU issued
system.cpu.iq.FU_type_0::SimdFloatMult              0      0.00%     65.89% # Type of FU issued
system.cpu.iq.FU_type_0::SimdFloatMultAcc            0      0.00%     65.89% # Type of FU issued
system.cpu.iq.FU_type_0::SimdFloatSqrt              0      0.00%     65.89% # Type of FU issued
system.cpu.iq.FU_type_0::MemRead                 7126     20.24%     86.12% # Type of FU issued
system.cpu.iq.FU_type_0::MemWrite                4886     13.88%    100.00% # Type of FU issued
system.cpu.iq.FU_type_0::IprAccess                  0      0.00%    100.00% # Type of FU issued
system.cpu.iq.FU_type_0::InstPrefetch               0      0.00%    100.00% # Type of FU issued
system.cpu.iq.FU_type_0::total                  35211                       # Type of FU issued
system.cpu.iq.rate                           0.508491                       # Inst issue rate
system.cpu.iq.fu_busy_cnt                          34                       # FU busy when requested
system.cpu.iq.fu_busy_rate                   0.000966                       # FU busy rate (busy events/executed inst)
system.cpu.iq.int_inst_queue_reads             107841                       # Number of integer instruction queue reads
system.cpu.iq.int_inst_queue_writes             55096                       # Number of integer instruction queue writes
system.cpu.iq.int_inst_queue_wakeup_accesses        33504                       # Number of integer instruction queue wakeup accesses
system.cpu.iq.fp_inst_queue_reads                  56                       # Number of floating instruction queue reads
system.cpu.iq.fp_inst_queue_writes                 28                       # Number of floating instruction queue writes
system.cpu.iq.fp_inst_queue_wakeup_accesses           28                       # Number of floating instruction queue wakeup accesses
system.cpu.iq.int_alu_accesses                  35217                       # Number of integer alu accesses
system.cpu.iq.fp_alu_accesses                      28                       # Number of floating point alu accesses
system.cpu.iew.lsq.thread0.forwLoads              106                       # Number of loads that had data forwarded from stores
system.cpu.iew.lsq.thread0.invAddrLoads             0                       # Number of loads ignored due to an invalid address
system.cpu.iew.lsq.thread0.squashedLoads         2924                       # Number of loads squashed
system.cpu.iew.lsq.thread0.ignoredResponses            2                       # Number of memory responses ignored because the instruction is squashed
system.cpu.iew.lsq.thread0.memOrderViolation           54                       # Number of memory ordering violations
system.cpu.iew.lsq.thread0.squashedStores         1359                       # Number of stores squashed
system.cpu.iew.lsq.thread0.invAddrSwpfs             0                       # Number of software prefetches ignored due to an invalid address
system.cpu.iew.lsq.thread0.blockedLoads             0                       # Number of blocked loads due to partial load-store forwarding
system.cpu.iew.lsq.thread0.rescheduledLoads           83                       # Number of loads that were rescheduled
system.cpu.iew.lsq.thread0.cacheBlocked            55                       # Number of times an access to memory failed due to the cache being blocked
system.cpu.iew.iewIdleCycles                        0                       # Number of cycles IEW is idle
system.cpu.iew.iewSquashCycles                    667                       # Number of cycles IEW is squashing
system.cpu.iew.iewBlockCycles                    1808                       # Number of cycles IEW is blocking
system.cpu.iew.iewUnblockCycles                   408                       # Number of cycles IEW is unblocking
system.cpu.iew.iewDispatchedInsts               42219                       # Number of instructions dispatched to IQ
system.cpu.iew.iewDispSquashedInsts               181                       # Number of squashed instructions skipped by dispatch
system.cpu.iew.iewDispLoadInsts                  8070                       # Number of dispatched load instructions
system.cpu.iew.iewDispStoreInsts                 5762                       # Number of dispatched store instructions
system.cpu.iew.iewDispNonSpecInsts                109                       # Number of dispatched non-speculative instructions
system.cpu.iew.iewIQFullEvents                     16                       # Number of times the IQ has become full, causing a stall
system.cpu.iew.iewLSQFullEvents                   382                       # Number of times the LSQ has become full, causing a stall
system.cpu.iew.memOrderViolationEvents             54                       # Number of memory order violations
system.cpu.iew.predictedTakenIncorrect            117                       # Number of branches that were predicted taken incorrectly
system.cpu.iew.predictedNotTakenIncorrect          540                       # Number of branches that were predicted not taken incorrectly
system.cpu.iew.branchMispredicts                  657                       # Number of branch mispredicts detected at execute
system.cpu.iew.iewExecutedInsts                 34404                       # Number of executed instructions
system.cpu.iew.iewExecLoadInsts                  6782                       # Number of load instructions executed
system.cpu.iew.iewExecSquashedInsts               807                       # Number of squashed instructions skipped in execute
system.cpu.iew.exec_swp                             0                       # number of swp insts executed
system.cpu.iew.exec_nop                             8                       # number of nop insts executed
system.cpu.iew.exec_refs                        11501                       # number of memory reference insts executed
system.cpu.iew.exec_branches                     4516                       # Number of branches executed
system.cpu.iew.exec_stores                       4719                       # Number of stores executed
system.cpu.iew.exec_rate                     0.496837                       # Inst execution rate
system.cpu.iew.wb_sent                          33786                       # cumulative count of insts sent to commit
system.cpu.iew.wb_count                         33532                       # cumulative count of insts written-back
system.cpu.iew.wb_producers                     20351                       # num instructions producing a value
system.cpu.iew.wb_consumers                     41239                       # num instructions consuming a value
system.cpu.iew.wb_penalized                         0                       # number of instrctions required to write to 'other' IQ
system.cpu.iew.wb_rate                       0.484245                       # insts written-back per cycle
system.cpu.iew.wb_fanout                     0.493489                       # average fanout of values written-back
system.cpu.iew.wb_penalized_rate                    0                       # fraction of instructions written-back that wrote to 'other' IQ
system.cpu.commit.commitSquashedInsts           12871                       # The number of squashed insts skipped by commit
system.cpu.commit.commitNonSpecStalls             175                       # The number of times commit has been forced to stall to communicate backwards
system.cpu.commit.branchMispredicts               618                       # The number of times a branch was mispredicted
system.cpu.commit.committed_per_cycle::samples        35010                       # Number of insts commited each cycle
system.cpu.commit.committed_per_cycle::mean     0.838360                       # Number of insts commited each cycle
system.cpu.commit.committed_per_cycle::stdev     1.851821                       # Number of insts commited each cycle
system.cpu.commit.committed_per_cycle::underflows            0      0.00%      0.00% # Number of insts commited each cycle
system.cpu.commit.committed_per_cycle::0        25659     73.29%     73.29% # Number of insts commited each cycle
system.cpu.commit.committed_per_cycle::1         3555     10.15%     83.44% # Number of insts commited each cycle
system.cpu.commit.committed_per_cycle::2         1505      4.30%     87.74% # Number of insts commited each cycle
system.cpu.commit.committed_per_cycle::3          710      2.03%     89.77% # Number of insts commited each cycle
system.cpu.commit.committed_per_cycle::4         1196      3.42%     93.19% # Number of insts commited each cycle
system.cpu.commit.committed_per_cycle::5          697      1.99%     95.18% # Number of insts commited each cycle
system.cpu.commit.committed_per_cycle::6          429      1.23%     96.40% # Number of insts commited each cycle
system.cpu.commit.committed_per_cycle::7          259      0.74%     97.14% # Number of insts commited each cycle
system.cpu.commit.committed_per_cycle::8         1000      2.86%    100.00% # Number of insts commited each cycle
system.cpu.commit.committed_per_cycle::overflows            0      0.00%    100.00% # Number of insts commited each cycle
system.cpu.commit.committed_per_cycle::min_value            0                       # Number of insts commited each cycle
system.cpu.commit.committed_per_cycle::max_value            8                       # Number of insts commited each cycle
system.cpu.commit.committed_per_cycle::total        35010                       # Number of insts commited each cycle
system.cpu.commit.committedInsts                25255                       # Number of instructions committed
system.cpu.commit.committedOps                  29351                       # Number of ops (including micro ops) committed
system.cpu.commit.swp_count                         0                       # Number of s/w prefetches committed
system.cpu.commit.refs                           9549                       # Number of memory references committed
system.cpu.commit.loads                          5146                       # Number of loads committed
system.cpu.commit.membars                         107                       # Number of memory barriers committed
system.cpu.commit.branches                       3729                       # Number of branches committed
system.cpu.commit.fp_insts                         28                       # Number of committed floating point instructions.
system.cpu.commit.int_insts                     26090                       # Number of committed integer instructions.
system.cpu.commit.function_calls                  269                       # Number of function calls committed.
system.cpu.commit.op_class_0::No_OpClass            0      0.00%      0.00% # Class of committed instruction
system.cpu.commit.op_class_0::IntAlu            18116     61.72%     61.72% # Class of committed instruction
system.cpu.commit.op_class_0::IntMult            1683      5.73%     67.46% # Class of committed instruction
system.cpu.commit.op_class_0::IntDiv                0      0.00%     67.46% # Class of committed instruction
system.cpu.commit.op_class_0::FloatAdd              0      0.00%     67.46% # Class of committed instruction
system.cpu.commit.op_class_0::FloatCmp              0      0.00%     67.46% # Class of committed instruction
system.cpu.commit.op_class_0::FloatCvt              0      0.00%     67.46% # Class of committed instruction
system.cpu.commit.op_class_0::FloatMult             0      0.00%     67.46% # Class of committed instruction
system.cpu.commit.op_class_0::FloatDiv              0      0.00%     67.46% # Class of committed instruction
system.cpu.commit.op_class_0::FloatSqrt             0      0.00%     67.46% # Class of committed instruction
system.cpu.commit.op_class_0::SimdAdd               0      0.00%     67.46% # Class of committed instruction
system.cpu.commit.op_class_0::SimdAddAcc            0      0.00%     67.46% # Class of committed instruction
system.cpu.commit.op_class_0::SimdAlu               0      0.00%     67.46% # Class of committed instruction
system.cpu.commit.op_class_0::SimdCmp               0      0.00%     67.46% # Class of committed instruction
system.cpu.commit.op_class_0::SimdCvt               0      0.00%     67.46% # Class of committed instruction
system.cpu.commit.op_class_0::SimdMisc              0      0.00%     67.46% # Class of committed instruction
system.cpu.commit.op_class_0::SimdMult              0      0.00%     67.46% # Class of committed instruction
system.cpu.commit.op_class_0::SimdMultAcc            0      0.00%     67.46% # Class of committed instruction
system.cpu.commit.op_class_0::SimdShift             0      0.00%     67.46% # Class of committed instruction
system.cpu.commit.op_class_0::SimdShiftAcc            0      0.00%     67.46% # Class of committed instruction
system.cpu.commit.op_class_0::SimdSqrt              0      0.00%     67.46% # Class of committed instruction
system.cpu.commit.op_class_0::SimdFloatAdd            0      0.00%     67.46% # Class of committed instruction
system.cpu.commit.op_class_0::SimdFloatAlu            0      0.00%     67.46% # Class of committed instruction
system.cpu.commit.op_class_0::SimdFloatCmp            0      0.00%     67.46% # Class of committed instruction
system.cpu.commit.op_class_0::SimdFloatCvt            0      0.00%     67.46% # Class of committed instruction
system.cpu.commit.op_class_0::SimdFloatDiv            0      0.00%     67.46% # Class of committed instruction
system.cpu.commit.op_class_0::SimdFloatMisc            3      0.01%     67.47% # Class of committed instruction
system.cpu.commit.op_class_0::SimdFloatMult            0      0.00%     67.47% # Class of committed instruction
system.cpu.commit.op_class_0::SimdFloatMultAcc            0      0.00%     67.47% # Class of committed instruction
system.cpu.commit.op_class_0::SimdFloatSqrt            0      0.00%     67.47% # Class of committed instruction
system.cpu.commit.op_class_0::MemRead            5146     17.53%     85.00% # Class of committed instruction
system.cpu.commit.op_class_0::MemWrite           4403     15.00%    100.00% # Class of committed instruction
system.cpu.commit.op_class_0::IprAccess             0      0.00%    100.00% # Class of committed instruction
system.cpu.commit.op_class_0::InstPrefetch            0      0.00%    100.00% # Class of committed instruction
system.cpu.commit.op_class_0::total             29351                       # Class of committed instruction
system.cpu.commit.bw_lim_events                  1000                       # number cycles where commit BW limit reached
system.cpu.rob.rob_reads                        76049                       # The number of ROB reads
system.cpu.rob.rob_writes                       86462                       # The number of ROB writes
system.cpu.timesIdled                             381                       # Number of times that the entire CPU went into an idle state and unscheduled itself
system.cpu.idleCycles                           32227                       # Total number of cycles that the CPU has spent unscheduled due to idling
system.cpu.committedInsts                       25255                       # Number of Instructions Simulated
system.cpu.committedOps                         29351                       # Number of Ops (including micro ops) Simulated
system.cpu.cpi                               2.741873                       # CPI: Cycles Per Instruction
system.cpu.cpi_total                         2.741873                       # CPI: Total CPI of All Threads
system.cpu.ipc                               0.364714                       # IPC: Instructions Per Cycle
system.cpu.ipc_total                         0.364714                       # IPC: Total IPC of All Threads
system.cpu.int_regfile_reads                    42693                       # number of integer regfile reads
system.cpu.int_regfile_writes                   22300                       # number of integer regfile writes
system.cpu.fp_regfile_reads                        22                       # number of floating regfile reads
system.cpu.fp_regfile_writes                        6                       # number of floating regfile writes
system.cpu.cc_regfile_reads                    121689                       # number of cc regfile reads
system.cpu.cc_regfile_writes                    15464                       # number of cc regfile writes
system.cpu.misc_regfile_reads                   12411                       # number of misc regfile reads
system.cpu.misc_regfile_writes                    106                       # number of misc regfile writes
system.cpu.dcache.tags.replacements                16                       # number of replacements
system.cpu.dcache.tags.tagsinuse           164.932779                       # Cycle average of tags in use
system.cpu.dcache.tags.total_refs                8785                       # Total number of references to valid blocks.
system.cpu.dcache.tags.sampled_refs               310                       # Sample count of references to valid blocks.
system.cpu.dcache.tags.avg_refs             28.338710                       # Average number of references to valid blocks.
system.cpu.dcache.tags.warmup_cycle                 0                       # Cycle when the warmup percentage was hit.
[...]
system.cpu.dcache.ReadReq_mshr_hits::cpu.data           82                       # number of ReadReq MSHR hits
system.cpu.dcache.ReadReq_mshr_hits::total           82                       # number of ReadReq MSHR hits
system.cpu.dcache.WriteReq_mshr_hits::cpu.data         1587                       # number of WriteReq MSHR hits
system.cpu.dcache.WriteReq_mshr_hits::total         1587                       # number of WriteReq MSHR hits
system.cpu.dcache.demand_mshr_hits::cpu.data         1669                       # number of demand (read+write) MSHR hits
system.cpu.dcache.demand_mshr_hits::total         1669                       # number of demand (read+write) MSHR hits
system.cpu.dcache.overall_mshr_hits::cpu.data         1669                       # number of overall MSHR hits
system.cpu.dcache.overall_mshr_hits::total         1669                       # number of overall MSHR hits
system.cpu.dcache.ReadReq_mshr_misses::cpu.data          156                       # number of ReadReq MSHR misses
system.cpu.dcache.ReadReq_mshr_misses::total          156                       # number of ReadReq MSHR misses
system.cpu.dcache.WriteReq_mshr_misses::cpu.data          152                       # number of WriteReq MSHR misses
system.cpu.dcache.WriteReq_mshr_misses::total          152                       # number of WriteReq MSHR misses
system.cpu.dcache.LoadLockedReq_mshr_misses::cpu.data            2                       # number of LoadLockedReq MSHR misses
system.cpu.dcache.LoadLockedReq_mshr_misses::total            2                       # number of LoadLockedReq MSHR misses
system.cpu.dcache.demand_mshr_misses::cpu.data          308                       # number of demand (read+write) MSHR misses
system.cpu.dcache.demand_mshr_misses::total          308                       # number of demand (read+write) MSHR misses
system.cpu.dcache.overall_mshr_misses::cpu.data          308                       # number of overall MSHR misses
system.cpu.dcache.overall_mshr_misses::total          308                       # number of overall MSHR misses
system.cpu.dcache.ReadReq_mshr_miss_latency::cpu.data     10081750                       # number of ReadReq MSHR miss cycles
system.cpu.dcache.ReadReq_mshr_miss_latency::total     10081750                       # number of ReadReq MSHR miss cycles
system.cpu.dcache.WriteReq_mshr_miss_latency::cpu.data      8296995                       # number of WriteReq MSHR miss cycles
system.cpu.dcache.WriteReq_mshr_miss_latency::total      8296995                       # number of WriteReq MSHR miss cycles
system.cpu.dcache.LoadLockedReq_mshr_miss_latency::cpu.data       134250                       # number of LoadLockedReq MSHR miss cycles
system.cpu.dcache.LoadLockedReq_mshr_miss_latency::total       134250                       # number of LoadLockedReq MSHR miss cycles
system.cpu.dcache.demand_mshr_miss_latency::cpu.data     18378745                       # number of demand (read+write) MSHR miss cycles
system.cpu.dcache.demand_mshr_miss_latency::total     18378745                       # number of demand (read+write) MSHR miss cycles
system.cpu.dcache.overall_mshr_miss_latency::cpu.data     18378745                       # number of overall MSHR miss cycles
system.cpu.dcache.overall_mshr_miss_latency::total     18378745                       # number of overall MSHR miss cycles
system.cpu.dcache.ReadReq_mshr_miss_rate::cpu.data     0.024367                       # mshr miss rate for ReadReq accesses
system.cpu.dcache.ReadReq_mshr_miss_rate::total     0.024367                       # mshr miss rate for ReadReq accesses
system.cpu.dcache.WriteReq_mshr_miss_rate::cpu.data     0.035739                       # mshr miss rate for WriteReq accesses
system.cpu.dcache.WriteReq_mshr_miss_rate::total     0.035739                       # mshr miss rate for WriteReq accesses
system.cpu.dcache.LoadLockedReq_mshr_miss_rate::cpu.data     0.038462                       # mshr miss rate for LoadLockedReq accesses
system.cpu.dcache.LoadLockedReq_mshr_miss_rate::total     0.038462                       # mshr miss rate for LoadLockedReq accesses
system.cpu.dcache.demand_mshr_miss_rate::cpu.data     0.028907                       # mshr miss rate for demand accesses
system.cpu.dcache.demand_mshr_miss_rate::total     0.028907                       # mshr miss rate for demand accesses
system.cpu.dcache.overall_mshr_miss_rate::cpu.data     0.028893                       # mshr miss rate for overall accesses
system.cpu.dcache.overall_mshr_miss_rate::total     0.028893                       # mshr miss rate for overall accesses
system.cpu.dcache.ReadReq_avg_mshr_miss_latency::cpu.data 64626.602564                       # average ReadReq mshr miss latency
system.cpu.dcache.ReadReq_avg_mshr_miss_latency::total 64626.602564                       # average ReadReq mshr miss latency
system.cpu.dcache.WriteReq_avg_mshr_miss_latency::cpu.data 54585.493421                       # average WriteReq mshr miss latency
system.cpu.dcache.WriteReq_avg_mshr_miss_latency::total 54585.493421                       # average WriteReq mshr miss latency
system.cpu.dcache.LoadLockedReq_avg_mshr_miss_latency::cpu.data        67125                       # average LoadLockedReq mshr miss latency
system.cpu.dcache.LoadLockedReq_avg_mshr_miss_latency::total        67125                       # average LoadLockedReq mshr miss latency
system.cpu.dcache.demand_avg_mshr_miss_latency::cpu.data 59671.250000                       # average overall mshr miss latency
system.cpu.dcache.demand_avg_mshr_miss_latency::total 59671.250000                       # average overall mshr miss latency
system.cpu.dcache.overall_avg_mshr_miss_latency::cpu.data 59671.250000                       # average overall mshr miss latency
system.cpu.dcache.overall_avg_mshr_miss_latency::total 59671.250000                       # average overall mshr miss latency
system.cpu.dcache.no_allocate_misses                0                       # Number of misses that were no-allocate
system.cpu.icache.tags.replacements               203                       # number of replacements
system.cpu.icache.tags.tagsinuse           238.069937                       # Cycle average of tags in use
system.cpu.icache.tags.total_refs                5174                       # Total number of references to valid blocks.
system.cpu.icache.tags.sampled_refs               582                       # Sample count of references to valid blocks.
system.cpu.icache.tags.avg_refs              8.890034                       # Average number of references to valid blocks.
system.cpu.icache.tags.warmup_cycle                 0                       # Cycle when the warmup percentage was hit.
system.cpu.icache.tags.occ_blocks::cpu.inst   238.069937                       # Average occupied blocks per requestor
system.cpu.icache.tags.occ_percent::cpu.inst     0.464980                       # Average percentage of cache occupancy
system.cpu.icache.tags.occ_percent::total     0.464980                       # Average percentage of cache occupancy
system.cpu.icache.tags.occ_task_id_blocks::1024          379                       # Occupied blocks per task id
system.cpu.icache.tags.age_task_id_blocks_1024::0          136                       # Occupied blocks per task id
system.cpu.icache.tags.age_task_id_blocks_1024::1          243                       # Occupied blocks per task id
system.cpu.icache.tags.occ_task_id_percent::1024     0.740234                       # Percentage of cache occupancy per task id
system.cpu.icache.tags.tag_accesses             12482                       # Number of tag accesses
system.cpu.icache.tags.data_accesses            12482                       # Number of data accesses
system.cpu.icache.ReadReq_hits::cpu.inst         5174                       # number of ReadReq hits
system.cpu.icache.ReadReq_hits::total            5174                       # number of ReadReq hits
system.cpu.icache.demand_hits::cpu.inst          5174                       # number of demand (read+write) hits
system.cpu.icache.demand_hits::total             5174                       # number of demand (read+write) hits
system.cpu.icache.overall_hits::cpu.inst         5174                       # number of overall hits
system.cpu.icache.overall_hits::total            5174                       # number of overall hits
system.cpu.icache.ReadReq_misses::cpu.inst          776                       # number of ReadReq misses
system.cpu.icache.ReadReq_misses::total           776                       # number of ReadReq misses
system.cpu.icache.demand_misses::cpu.inst          776                       # number of demand (read+write) misses
system.cpu.icache.demand_misses::total            776                       # number of demand (read+write) misses
system.cpu.icache.overall_misses::cpu.inst          776                       # number of overall misses
system.cpu.icache.overall_misses::total           776                       # number of overall misses
system.cpu.icache.ReadReq_miss_latency::cpu.inst     41502750                       # number of ReadReq miss cycles
system.cpu.icache.ReadReq_miss_latency::total     41502750                       # number of ReadReq miss cycles
system.cpu.icache.demand_miss_latency::cpu.inst     41502750                       # number of demand (read+write) miss cycles
system.cpu.icache.demand_miss_latency::total     41502750                       # number of demand (read+write) miss cycles
system.cpu.icache.overall_miss_latency::cpu.inst     41502750                       # number of overall miss cycles
system.cpu.icache.overall_miss_latency::total     41502750                       # number of overall miss cycles
system.cpu.icache.ReadReq_accesses::cpu.inst         5950                       # number of ReadReq accesses(hits+misses)
system.cpu.icache.ReadReq_accesses::total         5950                       # number of ReadReq accesses(hits+misses)
system.cpu.icache.demand_accesses::cpu.inst         5950                       # number of demand (read+write) accesses
system.cpu.icache.demand_accesses::total         5950                       # number of demand (read+write) accesses
system.cpu.icache.overall_accesses::cpu.inst         5950                       # number of overall (read+write) accesses
system.cpu.icache.overall_accesses::total         5950                       # number of overall (read+write) accesses
system.cpu.icache.ReadReq_miss_rate::cpu.inst     0.130420                       # miss rate for ReadReq accesses
system.cpu.icache.ReadReq_miss_rate::total     0.130420                       # miss rate for ReadReq accesses
system.cpu.icache.demand_miss_rate::cpu.inst     0.130420                       # miss rate for demand accesses
system.cpu.icache.demand_miss_rate::total     0.130420                       # miss rate for demand accesses
system.cpu.icache.overall_miss_rate::cpu.inst     0.130420                       # miss rate for overall accesses
system.cpu.icache.overall_miss_rate::total     0.130420                       # miss rate for overall accesses
system.cpu.icache.ReadReq_avg_miss_latency::cpu.inst 53482.925258                       # average ReadReq miss latency
system.cpu.icache.ReadReq_avg_miss_latency::total 53482.925258                       # average ReadReq miss latency
system.cpu.icache.demand_avg_miss_latency::cpu.inst 53482.925258                       # average overall miss latency
system.cpu.icache.demand_avg_miss_latency::total 53482.925258                       # average overall miss latency
system.cpu.icache.overall_avg_miss_latency::cpu.inst 53482.925258                       # average overall miss latency
system.cpu.icache.overall_avg_miss_latency::total 53482.925258                       # average overall miss latency
system.cpu.icache.blocked_cycles::no_mshrs          191                       # number of cycles access was blocked
system.cpu.icache.blocked_cycles::no_targets            0                       # number of cycles access was blocked
system.cpu.icache.blocked::no_mshrs                 5                       # number of cycles access was blocked
system.cpu.icache.blocked::no_targets               0                       # number of cycles access was blocked
system.cpu.icache.avg_blocked_cycles::no_mshrs    38.200000                       # average number of cycles each access was blocked
system.cpu.icache.avg_blocked_cycles::no_targets          nan                       # average number of cycles each access was blocked
system.cpu.icache.fast_writes                       0                       # number of fast writes performed
system.cpu.icache.cache_copies                      0                       # number of cache copies performed
system.cpu.icache.ReadReq_mshr_hits::cpu.inst          193                       # number of ReadReq MSHR hits
system.cpu.icache.ReadReq_mshr_hits::total          193                       # number of ReadReq MSHR hits
system.cpu.icache.demand_mshr_hits::cpu.inst          193                       # number of demand (read+write) MSHR hits
system.cpu.icache.demand_mshr_hits::total          193                       # number of demand (read+write) MSHR hits
system.cpu.icache.overall_mshr_hits::cpu.inst          193                       # number of overall MSHR hits
system.cpu.icache.overall_mshr_hits::total          193                       # number of overall MSHR hits
system.cpu.icache.ReadReq_mshr_misses::cpu.inst          583                       # number of ReadReq MSHR misses
system.cpu.icache.ReadReq_mshr_misses::total          583                       # number of ReadReq MSHR misses
system.cpu.icache.demand_mshr_misses::cpu.inst          583                       # number of demand (read+write) MSHR misses
system.cpu.icache.demand_mshr_misses::total          583                       # number of demand (read+write) MSHR misses
system.cpu.icache.overall_mshr_misses::cpu.inst          583                       # number of overall MSHR misses
system.cpu.icache.overall_mshr_misses::total          583                       # number of overall MSHR misses
system.cpu.icache.ReadReq_mshr_miss_latency::cpu.inst     31942250                       # number of ReadReq MSHR miss cycles
system.cpu.icache.ReadReq_mshr_miss_latency::total     31942250                       # number of ReadReq MSHR miss cycles
system.cpu.icache.demand_mshr_miss_latency::cpu.inst     31942250                       # number of demand (read+write) MSHR miss cycles
system.cpu.icache.demand_mshr_miss_latency::total     31942250                       # number of demand (read+write) MSHR miss cycles
system.cpu.icache.overall_mshr_miss_latency::cpu.inst     31942250                       # number of overall MSHR miss cycles
system.cpu.icache.overall_mshr_miss_latency::total     31942250                       # number of overall MSHR miss cycles
system.cpu.icache.ReadReq_mshr_miss_rate::cpu.inst     0.097983                       # mshr miss rate for ReadReq accesses
system.cpu.icache.ReadReq_mshr_miss_rate::total     0.097983                       # mshr miss rate for ReadReq accesses
system.cpu.icache.demand_mshr_miss_rate::cpu.inst     0.097983                       # mshr miss rate for demand accesses
system.cpu.icache.demand_mshr_miss_rate::total     0.097983                       # mshr miss rate for demand accesses
system.cpu.icache.overall_mshr_miss_rate::cpu.inst     0.097983                       # mshr miss rate for overall accesses
system.cpu.icache.overall_mshr_miss_rate::total     0.097983                       # mshr miss rate for overall accesses
system.cpu.icache.ReadReq_avg_mshr_miss_latency::cpu.inst 54789.451115                       # average ReadReq mshr miss latency
system.cpu.icache.ReadReq_avg_mshr_miss_latency::total 54789.451115                       # average ReadReq mshr miss latency
system.cpu.icache.demand_avg_mshr_miss_latency::cpu.inst 54789.451115                       # average overall mshr miss latency
system.cpu.icache.demand_avg_mshr_miss_latency::total 54789.451115                       # average overall mshr miss latency
system.cpu.icache.overall_avg_mshr_miss_latency::cpu.inst 54789.451115                       # average overall mshr miss latency
system.cpu.icache.overall_avg_mshr_miss_latency::total 54789.451115                       # average overall mshr miss latency
system.cpu.icache.no_allocate_misses                0                       # Number of misses that were no-allocate
system.membus.trans_dist::ReadReq                 741                       # Transaction distribution
system.membus.trans_dist::ReadResp                740                       # Transaction distribution
system.membus.trans_dist::Writeback                 4                       # Transaction distribution
system.membus.trans_dist::ReadExReq               152                       # Transaction distribution
system.membus.trans_dist::ReadExResp              152                       # Transaction distribution
system.membus.pkt_count_system.cpu.icache.mem_side::system.mem_ctrls.port         1165                       # Packet count per connected master and slave (bytes)
system.membus.pkt_count_system.cpu.dcache.mem_side::system.mem_ctrls.port          624                       # Packet count per connected master and slave (bytes)
system.membus.pkt_count::total                   1789                       # Packet count per connected master and slave (bytes)
system.membus.pkt_size_system.cpu.icache.mem_side::system.mem_ctrls.port        37248                       # Cumulative packet size per connected master and slave (bytes)
system.membus.pkt_size_system.cpu.dcache.mem_side::system.mem_ctrls.port        20096                       # Cumulative packet size per connected master and slave (bytes)
system.membus.pkt_size::total                   57344                       # Cumulative packet size per connected master and slave (bytes)
system.membus.snoops                                0                       # Total snoops (count)
system.membus.snoop_fanout::samples               897                       # Request fanout histogram
system.membus.snoop_fanout::mean                    1                       # Request fanout histogram
system.membus.snoop_fanout::stdev                   0                       # Request fanout histogram
system.membus.snoop_fanout::underflows              0      0.00%      0.00% # Request fanout histogram
system.membus.snoop_fanout::0                       0      0.00%      0.00% # Request fanout histogram
system.membus.snoop_fanout::1                     897    100.00%    100.00% # Request fanout histogram
system.membus.snoop_fanout::2                       0      0.00%    100.00% # Request fanout histogram
system.membus.snoop_fanout::overflows               0      0.00%    100.00% # Request fanout histogram
system.membus.snoop_fanout::min_value               1                       # Request fanout histogram
system.membus.snoop_fanout::max_value               1                       # Request fanout histogram
system.membus.snoop_fanout::total                 897                       # Request fanout histogram
system.membus.reqLayer0.occupancy             1102500                       # Layer occupancy (ticks)
system.membus.reqLayer0.utilization               3.2                       # Layer utilization (%)
system.membus.respLayer1.occupancy            3093750                       # Layer occupancy (ticks)
system.membus.respLayer1.utilization              8.9                       # Layer utilization (%)
system.membus.respLayer2.occupancy            1659500                       # Layer occupancy (ticks)
system.membus.respLayer2.utilization              4.8                       # Layer utilization (%)

---------- End Simulation Statistics   ----------
