
---------- Begin Simulation Statistics ----------
sim_seconds                                  0.000044                       # Number of seconds simulated
sim_ticks                                    44408000                       # Number of ticks simulated
final_tick                                   44408000                       # Number of ticks from beginning of simulation (restored from checkpoints and never reset)
sim_freq                                 1000000000000                       # Frequency of simulated ticks
host_inst_rate                                 157503                       # Simulator instruction rate (inst/s)
host_op_rate                                   165771                       # Simulator op (including micro ops) rate (op/s)
host_tick_rate                               39027015                       # Simulator tick rate (ticks/s)
host_mem_usage                                 680212                       # Number of bytes of host memory used
host_seconds                                     1.14                       # Real time elapsed on the host
sim_insts                                      179214                       # Number of instructions simulated
sim_ops                                        188625                       # Number of ops (including micro ops) simulated
system.voltage_domain.voltage                       1                       # Voltage in Volts
system.clk_domain.clock                          1000                       # Clock period in ticks
system.mem_ctrls.bytes_read::cpu0.inst          38656                       # Number of bytes read from this memory
system.mem_ctrls.bytes_read::cpu0.data          26368                       # Number of bytes read from this memory
system.mem_ctrls.bytes_read::cpu1.inst           3392                       # Number of bytes read from this memory
system.mem_ctrls.bytes_read::cpu1.data           1152                       # Number of bytes read from this memory
system.mem_ctrls.bytes_read::cpu2.inst           3456                       # Number of bytes read from this memory
system.mem_ctrls.bytes_read::cpu2.data           1152                       # Number of bytes read from this memory
system.mem_ctrls.bytes_read::cpu3.inst           3456                       # Number of bytes read from this memory
system.mem_ctrls.bytes_read::cpu3.data           1088                       # Number of bytes read from this memory
system.mem_ctrls.bytes_read::cpu4.inst           3200                       # Number of bytes read from this memory
system.mem_ctrls.bytes_read::cpu4.data           1152                       # Number of bytes read from this memory
system.mem_ctrls.bytes_read::cpu5.inst           3264                       # Number of bytes read from this memory
system.mem_ctrls.bytes_read::cpu5.data           1152                       # Number of bytes read from this memory
system.mem_ctrls.bytes_read::cpu6.inst           3456                       # Number of bytes read from this memory
system.mem_ctrls.bytes_read::cpu6.data           1088                       # Number of bytes read from this memory
system.mem_ctrls.bytes_read::cpu7.inst           3200                       # Number of bytes read from this memory
system.mem_ctrls.bytes_read::cpu7.data           1152                       # Number of bytes read from this memory
system.mem_ctrls.bytes_read::total              96384                       # Number of bytes read from this memory
system.mem_ctrls.bytes_inst_read::cpu0.inst        38656                       # Number of instructions bytes read from this memory
system.mem_ctrls.bytes_inst_read::cpu1.inst         3392                       # Number of instructions bytes read from this memory
system.mem_ctrls.bytes_inst_read::cpu2.inst         3456                       # Number of instructions bytes read from this memory
system.mem_ctrls.bytes_inst_read::cpu3.inst         3456                       # Number of instructions bytes read from this memory
system.mem_ctrls.bytes_inst_read::cpu4.inst         3200                       # Number of instructions bytes read from this memory
system.mem_ctrls.bytes_inst_read::cpu5.inst         3264                       # Number of instructions bytes read from this memory
system.mem_ctrls.bytes_inst_read::cpu6.inst         3456                       # Number of instructions bytes read from this memory
system.mem_ctrls.bytes_inst_read::cpu7.inst         3200                       # Number of instructions bytes read from this memory
system.mem_ctrls.bytes_inst_read::total         62080                       # Number of instructions bytes read from this memory
system.mem_ctrls.bytes_written::writebacks         1088                       # Number of bytes written to this memory
system.mem_ctrls.bytes_written::total            1088                       # Number of bytes written to this memory
system.mem_ctrls.num_reads::cpu0.inst             604                       # Number of read requests responded to by this memory
system.mem_ctrls.num_reads::cpu0.data             412                       # Number of read requests responded to by this memory
system.mem_ctrls.num_reads::cpu1.inst              53                       # Number of read requests responded to by this memory
system.mem_ctrls.num_reads::cpu1.data              18                       # Number of read requests responded to by this memory
system.mem_ctrls.num_reads::cpu2.inst              54                       # Number of read requests responded to by this memory
system.mem_ctrls.num_reads::cpu2.data              18                       # Number of read requests responded to by this memory
system.mem_ctrls.num_reads::cpu3.inst              54                       # Number of read requests responded to by this memory
system.mem_ctrls.num_reads::cpu3.data              17                       # Number of read requests responded to by this memory
system.mem_ctrls.num_reads::cpu4.inst              50                       # Number of read requests responded to by this memory
system.mem_ctrls.num_reads::cpu4.data              18                       # Number of read requests responded to by this memory
system.mem_ctrls.num_reads::cpu5.inst              51                       # Number of read requests responded to by this memory
system.mem_ctrls.num_reads::cpu5.data              18                       # Number of read requests responded to by this memory
system.mem_ctrls.num_reads::cpu6.inst              54                       # Number of read requests responded to by this memory
system.mem_ctrls.num_reads::cpu6.data              17                       # Number of read requests responded to by this memory
system.mem_ctrls.num_reads::cpu7.inst              50                       # Number of read requests responded to by this memory
system.mem_ctrls.num_reads::cpu7.data              18                       # Number of read requests responded to by this memory
system.mem_ctrls.num_reads::total                1506                       # Number of read requests responded to by this memory
system.mem_ctrls.num_writes::writebacks            17                       # Number of write requests responded to by this memory
system.mem_ctrls.num_writes::total                 17                       # Number of write requests responded to by this memory
system.mem_ctrls.bw_read::cpu0.inst         870473789                       # Total read bandwidth from this memory (bytes/s)
system.mem_ctrls.bw_read::cpu0.data         593766889                       # Total read bandwidth from this memory (bytes/s)
system.mem_ctrls.bw_read::cpu1.inst          76382634                       # Total read bandwidth from this memory (bytes/s)
system.mem_ctrls.bw_read::cpu1.data          25941272                       # Total read bandwidth from this memory (bytes/s)
system.mem_ctrls.bw_read::cpu2.inst          77823816                       # Total read bandwidth from this memory (bytes/s)
system.mem_ctrls.bw_read::cpu2.data          25941272                       # Total read bandwidth from this memory (bytes/s)
system.mem_ctrls.bw_read::cpu3.inst          77823816                       # Total read bandwidth from this memory (bytes/s)
system.mem_ctrls.bw_read::cpu3.data          24500090                       # Total read bandwidth from this memory (bytes/s)
system.mem_ctrls.bw_read::cpu4.inst          72059088                       # Total read bandwidth from this memory (bytes/s)
system.mem_ctrls.bw_read::cpu4.data          25941272                       # Total read bandwidth from this memory (bytes/s)
system.mem_ctrls.bw_read::cpu5.inst          73500270                       # Total read bandwidth from this memory (bytes/s)
system.mem_ctrls.bw_read::cpu5.data          25941272                       # Total read bandwidth from this memory (bytes/s)
system.mem_ctrls.bw_read::cpu6.inst          77823816                       # Total read bandwidth from this memory (bytes/s)
system.mem_ctrls.bw_read::cpu6.data          24500090                       # Total read bandwidth from this memory (bytes/s)
system.mem_ctrls.bw_read::cpu7.inst          72059088                       # Total read bandwidth from this memory (bytes/s)
system.mem_ctrls.bw_read::cpu7.data          25941272                       # Total read bandwidth from this memory (bytes/s)
system.mem_ctrls.bw_read::total            2170419744                       # Total read bandwidth from this memory (bytes/s)
system.mem_ctrls.bw_inst_read::cpu0.inst    870473789                       # Instruction read bandwidth from this memory (bytes/s)
system.mem_ctrls.bw_inst_read::cpu1.inst     76382634                       # Instruction read bandwidth from this memory (bytes/s)
system.mem_ctrls.bw_inst_read::cpu2.inst     77823816                       # Instruction read bandwidth from this memory (bytes/s)
system.mem_ctrls.bw_inst_read::cpu3.inst     77823816                       # Instruction read bandwidth from this memory (bytes/s)
system.mem_ctrls.bw_inst_read::cpu4.inst     72059088                       # Instruction read bandwidth from this memory (bytes/s)
system.mem_ctrls.bw_inst_read::cpu5.inst     73500270                       # Instruction read bandwidth from this memory (bytes/s)
system.mem_ctrls.bw_inst_read::cpu6.inst     77823816                       # Instruction read bandwidth from this memory (bytes/s)
system.mem_ctrls.bw_inst_read::cpu7.inst     72059088                       # Instruction read bandwidth from this memory (bytes/s)
system.mem_ctrls.bw_inst_read::total       1397946316                       # Instruction read bandwidth from this memory (bytes/s)
system.mem_ctrls.bw_write::writebacks        24500090                       # Write bandwidth from this memory (bytes/s)
system.mem_ctrls.bw_write::total             24500090                       # Write bandwidth from this memory (bytes/s)
system.mem_ctrls.bw_total::writebacks        24500090                       # Total bandwidth to/from this memory (bytes/s)
system.mem_ctrls.bw_total::cpu0.inst        870473789                       # Total bandwidth to/from this memory (bytes/s)
system.mem_ctrls.bw_total::cpu0.data        593766889                       # Total bandwidth to/from this memory (bytes/s)
system.mem_ctrls.bw_total::cpu1.inst         76382634                       # Total bandwidth to/from this memory (bytes/s)
system.mem_ctrls.bw_total::cpu1.data         25941272                       # Total bandwidth to/from this memory (bytes/s)
system.mem_ctrls.bw_total::cpu2.inst         77823816                       # Total bandwidth to/from this memory (bytes/s)
system.mem_ctrls.bw_total::cpu2.data         25941272                       # Total bandwidth to/from this memory (bytes/s)
system.mem_ctrls.bw_total::cpu3.inst         77823816                       # Total bandwidth to/from this memory (bytes/s)
system.mem_ctrls.bw_total::cpu3.data         24500090                       # Total bandwidth to/from this memory (bytes/s)
system.mem_ctrls.bw_total::cpu4.inst         72059088                       # Total bandwidth to/from this memory (bytes/s)
system.mem_ctrls.bw_total::cpu4.data         25941272                       # Total bandwidth to/from this memory (bytes/s)
system.mem_ctrls.bw_total::cpu5.inst         73500270                       # Total bandwidth to/from this memory (bytes/s)
system.mem_ctrls.bw_total::cpu5.data         25941272                       # Total bandwidth to/from this memory (bytes/s)
system.mem_ctrls.bw_total::cpu6.inst         77823816                       # Total bandwidth to/from this memory (bytes/s)
system.mem_ctrls.bw_total::cpu6.data         24500090                       # Total bandwidth to/from this memory (bytes/s)
system.mem_ctrls.bw_total::cpu7.inst         72059088                       # Total bandwidth to/from this memory (bytes/s)
system.mem_ctrls.bw_total::cpu7.data         25941272                       # Total bandwidth to/from this memory (bytes/s)
system.mem_ctrls.bw_total::total           2194919834                       # Total bandwidth to/from this memory (bytes/s)
system.mem_ctrls.readReqs                        1507                       # Number of read requests accepted
system.mem_ctrls.writeReqs                         17                       # Number of write requests accepted
system.mem_ctrls.readBursts                      1507                       # Number of DRAM read bursts, including those serviced by the write queue
system.mem_ctrls.writeBursts                       17                       # Number of DRAM write bursts, including those merged in the write queue
system.mem_ctrls.bytesReadDRAM                  95104                       # Total number of bytes read from DRAM
system.mem_ctrls.bytesReadWrQ                    1344                       # Total number of bytes read from write queue
system.mem_ctrls.bytesWritten                       0                       # Total number of bytes written to DRAM
system.mem_ctrls.bytesReadSys                   96448                       # Total read bytes from the system interface side
system.mem_ctrls.bytesWrittenSys                 1088                       # Total written bytes from the system interface side
system.mem_ctrls.servicedByWrQ                     21                       # Number of DRAM read bursts serviced by the write queue
system.mem_ctrls.mergedWrBursts                     2                       # Number of DRAM write bursts merged with an existing one
system.mem_ctrls.neitherReadNorWriteReqs           12                       # Number of requests that are neither read nor write
system.mem_ctrls.perBankRdBursts::0               203                       # Per bank write bursts
system.mem_ctrls.perBankRdBursts::1               357                       # Per bank write bursts
system.mem_ctrls.perBankRdBursts::2               221                       # Per bank write bursts
system.mem_ctrls.perBankRdBursts::3               240                       # Per bank write bursts
system.mem_ctrls.perBankRdBursts::4                64                       # Per bank write bursts
system.mem_ctrls.perBankRdBursts::5                50                       # Per bank write bursts
system.mem_ctrls.perBankRdBursts::6               116                       # Per bank write bursts
system.mem_ctrls.perBankRdBursts::7                35                       # Per bank write bursts
system.mem_ctrls.perBankRdBursts::8                14                       # Per bank write bursts
system.mem_ctrls.perBankRdBursts::9                10                       # Per bank write bursts
system.mem_ctrls.perBankRdBursts::10                0                       # Per bank write bursts
system.mem_ctrls.perBankRdBursts::11               14                       # Per bank write bursts
system.mem_ctrls.perBankRdBursts::12                9                       # Per bank write bursts
system.mem_ctrls.perBankRdBursts::13               38                       # Per bank write bursts
system.mem_ctrls.perBankRdBursts::14               40                       # Per bank write bursts
system.mem_ctrls.perBankRdBursts::15               75                       # Per bank write bursts
system.mem_ctrls.perBankWrBursts::0                 0                       # Per bank write bursts
system.mem_ctrls.perBankWrBursts::1                 0                       # Per bank write bursts
system.mem_ctrls.perBankWrBursts::2                 0                       # Per bank write bursts
system.mem_ctrls.perBankWrBursts::3                 0                       # Per bank write bursts
system.mem_ctrls.perBankWrBursts::4                 0                       # Per bank write bursts
system.mem_ctrls.perBankWrBursts::5                 0                       # Per bank write bursts
system.mem_ctrls.perBankWrBursts::6                 0                       # Per bank write bursts
system.mem_ctrls.perBankWrBursts::7                 0                       # Per bank write bursts
system.mem_ctrls.perBankWrBursts::8                 0                       # Per bank write bursts
system.mem_ctrls.perBankWrBursts::9                 0                       # Per bank write bursts
system.mem_ctrls.perBankWrBursts::10                0                       # Per bank write bursts
system.mem_ctrls.perBankWrBursts::11                0                       # Per bank write bursts
system.mem_ctrls.perBankWrBursts::12                0                       # Per bank write bursts
system.mem_ctrls.perBankWrBursts::13                0                       # Per bank write bursts
system.mem_ctrls.perBankWrBursts::14                0                       # Per bank write bursts
system.mem_ctrls.perBankWrBursts::15                0                       # Per bank write bursts
system.mem_ctrls.numRdRetry                         0                       # Number of times read queue was full causing retry
system.mem_ctrls.numWrRetry                         0                       # Number of times write queue was full causing retry
system.mem_ctrls.totGap                      44401500                       # Total gap between requests
system.mem_ctrls.readPktSize::0                     0                       # Read request sizes (log2)
system.mem_ctrls.readPktSize::1                     0                       # Read request sizes (log2)
system.mem_ctrls.readPktSize::2                     0                       # Read request sizes (log2)
system.mem_ctrls.readPktSize::3                     0                       # Read request sizes (log2)
system.mem_ctrls.readPktSize::4                     0                       # Read request sizes (log2)
system.mem_ctrls.readPktSize::5                     0                       # Read request sizes (log2)
system.mem_ctrls.readPktSize::6                  1507                       # Read request sizes (log2)
system.mem_ctrls.writePktSize::0                    0                       # Write request sizes (log2)
system.mem_ctrls.writePktSize::1                    0                       # Write request sizes (log2)
system.mem_ctrls.writePktSize::2                    0                       # Write request sizes (log2)
system.mem_ctrls.writePktSize::3                    0                       # Write request sizes (log2)
system.mem_ctrls.writePktSize::4                    0                       # Write request sizes (log2)
system.mem_ctrls.writePktSize::5                    0                       # Write request sizes (log2)
system.mem_ctrls.writePktSize::6                   17                       # Write request sizes (log2)
system.mem_ctrls.rdQLenPdf::0                     550                       # What read queue length does an incoming req see
system.mem_ctrls.rdQLenPdf::1                     369                       # What read queue length does an incoming req see
system.mem_ctrls.rdQLenPdf::2                     117                       # What read queue length does an incoming req see
system.mem_ctrls.rdQLenPdf::3                      70                       # What read queue length does an incoming req see
system.mem_ctrls.rdQLenPdf::4                      46                       # What read queue length does an incoming req see
system.mem_ctrls.rdQLenPdf::5                      50                       # What read queue length does an incoming req see
system.mem_ctrls.rdQLenPdf::6                      51                       # What read queue length does an incoming req see
system.mem_ctrls.rdQLenPdf::7                      49                       # What read queue length does an incoming req see
system.mem_ctrls.rdQLenPdf::8                      59                       # What read queue length does an incoming req see
system.mem_ctrls.rdQLenPdf::9                      27                       # What read queue length does an incoming req see
system.mem_ctrls.rdQLenPdf::10                     29                       # What read queue length does an incoming req see
system.mem_ctrls.rdQLenPdf::11                     27                       # What read queue length does an incoming req see
system.mem_ctrls.rdQLenPdf::12                     17                       # What read queue length does an incoming req see
system.mem_ctrls.rdQLenPdf::13                     11                       # What read queue length does an incoming req see
system.mem_ctrls.rdQLenPdf::14                      3                       # What read queue length does an incoming req see
system.mem_ctrls.rdQLenPdf::15                      3                       # What read queue length does an incoming req see
system.mem_ctrls.rdQLenPdf::16                      3                       # What read queue length does an incoming req see
system.mem_ctrls.rdQLenPdf::17                      5                       # What read queue length does an incoming req see
system.mem_ctrls.rdQLenPdf::18                      0                       # What read queue length does an incoming req see
system.mem_ctrls.rdQLenPdf::19                      0                       # What read queue length does an incoming req see
system.mem_ctrls.rdQLenPdf::20                      0                       # What read queue length does an incoming req see
system.mem_ctrls.rdQLenPdf::21                      0                       # What read queue length does an incoming req see
system.mem_ctrls.rdQLenPdf::22                      0                       # What read queue length does an incoming req see
system.mem_ctrls.rdQLenPdf::23                      0                       # What read queue length does an incoming req see
system.mem_ctrls.rdQLenPdf::24                      0                       # What read queue length does an incoming req see
system.mem_ctrls.rdQLenPdf::25                      0                       # What read queue length does an incoming req see
system.mem_ctrls.rdQLenPdf::26                      0                       # What read queue length does an incoming req see
system.mem_ctrls.rdQLenPdf::27                      0                       # What read queue length does an incoming req see
system.mem_ctrls.rdQLenPdf::28                      0                       # What read queue length does an incoming req see
system.mem_ctrls.rdQLenPdf::29                      0                       # What read queue length does an incoming req see
system.mem_ctrls.rdQLenPdf::30                      0                       # What read queue length does an incoming req see
system.mem_ctrls.rdQLenPdf::31                      0                       # What read queue length does an incoming req see
system.mem_ctrls.wrQLenPdf::0                       1                       # What write queue length does an incoming req see
system.mem_ctrls.wrQLenPdf::1                       1                       # What write queue length does an incoming req see
system.mem_ctrls.wrQLenPdf::2                       1                       # What write queue length does an incoming req see
system.mem_ctrls.wrQLenPdf::3                       1                       # What write queue length does an incoming req see
system.mem_ctrls.wrQLenPdf::4                       1                       # What write queue length does an incoming req see
system.mem_ctrls.wrQLenPdf::5                       1                       # What write queue length does an incoming req see
system.mem_ctrls.wrQLenPdf::6                       1                       # What write queue length does an incoming req see
system.mem_ctrls.wrQLenPdf::7                       1                       # What write queue length does an incoming req see
system.mem_ctrls.wrQLenPdf::8                       1                       # What write queue length does an incoming req see
system.mem_ctrls.wrQLenPdf::9                       1                       # What write queue length does an incoming req see
system.mem_ctrls.wrQLenPdf::10                      1                       # What write queue length does an incoming req see
system.mem_ctrls.wrQLenPdf::11                      1                       # What write queue length does an incoming req see
system.mem_ctrls.wrQLenPdf::12                      1                       # What write queue length does an incoming req see
system.mem_ctrls.wrQLenPdf::13                      1                       # What write queue length does an incoming req see
system.mem_ctrls.wrQLenPdf::14                      1                       # What write queue length does an incoming req see
system.mem_ctrls.wrQLenPdf::15                      0                       # What write queue length does an incoming req see
system.mem_ctrls.wrQLenPdf::16                      0                       # What write queue length does an incoming req see
system.mem_ctrls.wrQLenPdf::17                      0                       # What write queue length does an incoming req see
system.mem_ctrls.wrQLenPdf::18                      0                       # What write queue length does an incoming req see
system.mem_ctrls.wrQLenPdf::19                      0                       # What write queue length does an incoming req see
system.mem_ctrls.wrQLenPdf::20                      0                       # What write queue length does an incoming req see
system.mem_ctrls.wrQLenPdf::21                      0                       # What write queue length does an incoming req see
system.mem_ctrls.wrQLenPdf::22                      0                       # What write queue length does an incoming req see
system.mem_ctrls.wrQLenPdf::23                      0                       # What write queue length does an incoming req see
system.mem_ctrls.wrQLenPdf::24                      0                       # What write queue length does an incoming req see
system.mem_ctrls.wrQLenPdf::25                      0                       # What write queue length does an incoming req see
system.mem_ctrls.wrQLenPdf::26                      0                       # What write queue length does an incoming req see
system.mem_ctrls.wrQLenPdf::27                      0                       # What write queue length does an incoming req see
system.mem_ctrls.wrQLenPdf::28                      0                       # What write queue length does an incoming req see
system.mem_ctrls.wrQLenPdf::29                      0                       # What write queue length does an incoming req see
system.mem_ctrls.wrQLenPdf::30                      0                       # What write queue length does an incoming req see
system.mem_ctrls.wrQLenPdf::31                      0                       # What write queue length does an incoming req see
system.mem_ctrls.wrQLenPdf::32                      0                       # What write queue length does an incoming req see
system.mem_ctrls.wrQLenPdf::33                      0                       # What write queue length does an incoming req see
system.mem_ctrls.wrQLenPdf::34                      0                       # What write queue length does an incoming req see
system.mem_ctrls.wrQLenPdf::35                      0                       # What write queue length does an incoming req see
system.mem_ctrls.wrQLenPdf::36                      0                       # What write queue length does an incoming req see
system.mem_ctrls.wrQLenPdf::37                      0                       # What write queue length does an incoming req see
system.mem_ctrls.wrQLenPdf::38                      0                       # What write queue length does an incoming req see
system.mem_ctrls.wrQLenPdf::39                      0                       # What write queue length does an incoming req see
system.mem_ctrls.wrQLenPdf::40                      0                       # What write queue length does an incoming req see
system.mem_ctrls.wrQLenPdf::41                      0                       # What write queue length does an incoming req see
system.mem_ctrls.wrQLenPdf::42                      0                       # What write queue length does an incoming req see
system.mem_ctrls.wrQLenPdf::43                      0                       # What write queue length does an incoming req see
system.mem_ctrls.wrQLenPdf::44                      0                       # What write queue length does an incoming req see
system.mem_ctrls.wrQLenPdf::45                      0                       # What write queue length does an incoming req see
system.mem_ctrls.wrQLenPdf::46                      0                       # What write queue length does an incoming req see
system.mem_ctrls.wrQLenPdf::47                      0                       # What write queue length does an incoming req see
system.mem_ctrls.wrQLenPdf::48                      0                       # What write queue length does an incoming req see
system.mem_ctrls.wrQLenPdf::49                      0                       # What write queue length does an incoming req see
system.mem_ctrls.wrQLenPdf::50                      0                       # What write queue length does an incoming req see
system.mem_ctrls.wrQLenPdf::51                      0                       # What write queue length does an incoming req see
system.mem_ctrls.wrQLenPdf::52                      0                       # What write queue length does an incoming req see
system.mem_ctrls.wrQLenPdf::53                      0                       # What write queue length does an incoming req see
system.mem_ctrls.wrQLenPdf::54                      0                       # What write queue length does an incoming req see
system.mem_ctrls.wrQLenPdf::55                      0                       # What write queue length does an incoming req see
system.mem_ctrls.wrQLenPdf::56                      0                       # What write queue length does an incoming req see
system.mem_ctrls.wrQLenPdf::57                      0                       # What write queue length does an incoming req see
system.mem_ctrls.wrQLenPdf::58                      0                       # What write queue length does an incoming req see
system.mem_ctrls.wrQLenPdf::59                      0                       # What write queue length does an incoming req see
system.mem_ctrls.wrQLenPdf::60                      0                       # What write queue length does an incoming req see
system.mem_ctrls.wrQLenPdf::61                      0                       # What write queue length does an incoming req see
system.mem_ctrls.wrQLenPdf::62                      0                       # What write queue length does an incoming req see
system.mem_ctrls.wrQLenPdf::63                      0                       # What write queue length does an incoming req see
system.mem_ctrls.bytesPerActivate::samples          283                       # Bytes accessed per row activation
system.mem_ctrls.bytesPerActivate::mean    327.236749                       # Bytes accessed per row activation
system.mem_ctrls.bytesPerActivate::gmean   185.873393                       # Bytes accessed per row activation
system.mem_ctrls.bytesPerActivate::stdev   345.163930                       # Bytes accessed per row activation
system.mem_ctrls.bytesPerActivate::0-127          116     40.99%     40.99% # Bytes accessed per row activation
system.mem_ctrls.bytesPerActivate::128-255           54     19.08%     60.07% # Bytes accessed per row activation
system.mem_ctrls.bytesPerActivate::256-383           22      7.77%     67.84% # Bytes accessed per row activation
system.mem_ctrls.bytesPerActivate::384-511           20      7.07%     74.91% # Bytes accessed per row activation
system.mem_ctrls.bytesPerActivate::512-639           10      3.53%     78.45% # Bytes accessed per row activation
system.mem_ctrls.bytesPerActivate::640-767           11      3.89%     82.33% # Bytes accessed per row activation
system.mem_ctrls.bytesPerActivate::768-895            6      2.12%     84.45% # Bytes accessed per row activation
system.mem_ctrls.bytesPerActivate::896-1023            6      2.12%     86.57% # Bytes accessed per row activation
system.mem_ctrls.bytesPerActivate::1024-1151           38     13.43%    100.00% # Bytes accessed per row activation
system.mem_ctrls.bytesPerActivate::total          283                       # Bytes accessed per row activation
system.mem_ctrls.totQLat                     28271000                       # Total ticks spent queuing
system.mem_ctrls.totMemAccLat                56133500                       # Total ticks spent from burst creation until serviced by the DRAM
system.mem_ctrls.totBusLat                    7430000                       # Total ticks spent in databus transfers
system.mem_ctrls.avgQLat                     19024.90                       # Average queueing delay per DRAM burst
system.mem_ctrls.avgBusLat                    5000.00                       # Average bus latency per DRAM burst
system.mem_ctrls.avgMemAccLat                37774.90                       # Average memory access latency per DRAM burst
system.mem_ctrls.avgRdBW                      2141.60                       # Average DRAM read bandwidth in MiByte/s
system.mem_ctrls.avgWrBW                         0.00                       # Average achieved write bandwidth in MiByte/s
system.mem_ctrls.avgRdBWSys                   2171.86                       # Average system read bandwidth in MiByte/s
system.mem_ctrls.avgWrBWSys                     24.50                       # Average system write bandwidth in MiByte/s
system.mem_ctrls.peakBW                      12800.00                       # Theoretical peak bandwidth in MiByte/s
system.mem_ctrls.busUtil                        16.73                       # Data bus utilization in percentage
system.mem_ctrls.busUtilRead                    16.73                       # Data bus utilization in percentage for reads
system.mem_ctrls.busUtilWrite                    0.00                       # Data bus utilization in percentage for writes
system.mem_ctrls.avgRdQLen                       2.29                       # Average read queue length when enqueuing
system.mem_ctrls.avgWrQLen                       4.05                       # Average write queue length when enqueuing
system.mem_ctrls.readRowHits                     1191                       # Number of row buffer hits during reads
system.mem_ctrls.writeRowHits                       0                       # Number of row buffer hits during writes
system.mem_ctrls.readRowHitRate                 80.15                       # Row buffer hit rate for reads
system.mem_ctrls.writeRowHitRate                 0.00                       # Row buffer hit rate for writes
system.mem_ctrls.avgGap                      29134.84                       # Average gap between requests
system.mem_ctrls.pageHitRate                    79.35                       # Row buffer hit rate, read and write combined
system.mem_ctrls_0.actEnergy                  1761480                       # Energy for activate commands per rank (pJ)
system.mem_ctrls_0.preEnergy                   961125                       # Energy for precharge commands per rank (pJ)
system.mem_ctrls_0.readEnergy                 9196200                       # Energy for read commands per rank (pJ)
system.mem_ctrls_0.writeEnergy                      0                       # Energy for write commands per rank (pJ)
system.mem_ctrls_0.refreshEnergy              2542800                       # Energy for refresh commands per rank (pJ)
system.mem_ctrls_0.actBackEnergy             26588790                       # Energy for active background per rank (pJ)
system.mem_ctrls_0.preBackEnergy               191250                       # Energy for precharge background per rank (pJ)
system.mem_ctrls_0.totalEnergy               41241645                       # Total energy per rank (pJ)
system.mem_ctrls_0.averagePower           1052.317673                       # Core power per rank (mW)
system.mem_ctrls_0.memoryStateTime::IDLE       170750                       # Time in different power states
system.mem_ctrls_0.memoryStateTime::REF       1300000                       # Time in different power states
system.mem_ctrls_0.memoryStateTime::PRE_PDN            0                       # Time in different power states
system.mem_ctrls_0.memoryStateTime::ACT      37808250                       # Time in different power states
system.mem_ctrls_0.memoryStateTime::ACT_PDN            0                       # Time in different power states
system.mem_ctrls_1.actEnergy                   204120                       # Energy for activate commands per rank (pJ)
system.mem_ctrls_1.preEnergy                   111375                       # Energy for precharge commands per rank (pJ)
system.mem_ctrls_1.readEnergy                 1193400                       # Energy for read commands per rank (pJ)
system.mem_ctrls_1.writeEnergy                      0                       # Energy for write commands per rank (pJ)
system.mem_ctrls_1.refreshEnergy              2542800                       # Energy for refresh commands per rank (pJ)
system.mem_ctrls_1.actBackEnergy             23385960                       # Energy for active background per rank (pJ)
system.mem_ctrls_1.preBackEnergy              3000750                       # Energy for precharge background per rank (pJ)
system.mem_ctrls_1.totalEnergy               30438405                       # Total energy per rank (pJ)
system.mem_ctrls_1.averagePower            776.663286                       # Core power per rank (mW)
system.mem_ctrls_1.memoryStateTime::IDLE      6857500                       # Time in different power states
system.mem_ctrls_1.memoryStateTime::REF       1300000                       # Time in different power states
system.mem_ctrls_1.memoryStateTime::PRE_PDN            0                       # Time in different power states
system.mem_ctrls_1.memoryStateTime::ACT      33043000                       # Time in different power states
system.mem_ctrls_1.memoryStateTime::ACT_PDN            0                       # Time in different power states
system.cpu0.branchPred.lookups                  11119                       # Number of BP lookups
system.cpu0.branchPred.condPredicted             8713                       # Number of conditional branches predicted
system.cpu0.branchPred.condIncorrect             1000                       # Number of conditional branches incorrect
system.cpu0.branchPred.BTBLookups                8341                       # Number of BTB lookups
system.cpu0.branchPred.BTBHits                   4778                       # Number of BTB hits
system.cpu0.branchPred.BTBCorrect                   0                       # Number of correct BTB predictions (this stat may not work properly.
system.cpu0.branchPred.BTBHitPct            57.283299                       # BTB Hit Percentage
system.cpu0.branchPred.usedRAS                    901                       # Number of times the RAS was used to get a target.
system.cpu0.branchPred.RASInCorrect                13                       # Number of incorrect RAS predictions.
system.cpu_voltage_domain.voltage                   1                       # Voltage in Volts
system.cpu_clk_domain.clock                       500                       # Clock period in ticks
system.cpu0.dstage2_mmu.stage2_tlb.walker.walks            0                       # Table walker walks requested
system.cpu0.dstage2_mmu.stage2_tlb.walker.walkRequestOrigin_Requested::Data            0                       # Table walker requests started/completed, data/inst
system.cpu0.dstage2_mmu.stage2_tlb.walker.walkRequestOrigin_Requested::Inst            0                       # Table walker requests started/completed, data/inst
system.cpu0.dstage2_mmu.stage2_tlb.walker.walkRequestOrigin_Requested::total            0                       # Table walker requests started/completed, data/inst
system.cpu0.dstage2_mmu.stage2_tlb.walker.walkRequestOrigin_Completed::Data            0                       # Table walker requests started/completed, data/inst
system.cpu0.dstage2_mmu.stage2_tlb.walker.walkRequestOrigin_Completed::Inst            0                       # Table walker requests started/completed, data/inst
system.cpu0.dstage2_mmu.stage2_tlb.walker.walkRequestOrigin_Completed::total            0                       # Table walker requests started/completed, data/inst
system.cpu0.dstage2_mmu.stage2_tlb.walker.walkRequestOrigin::total            0                       # Table walker requests started/completed, data/inst
system.cpu0.dstage2_mmu.stage2_tlb.inst_hits            0                       # ITB inst hits
system.cpu0.dstage2_mmu.stage2_tlb.inst_misses            0                       # ITB inst misses
system.cpu0.dstage2_mmu.stage2_tlb.read_hits            0                       # DTB read hits
system.cpu0.dstage2_mmu.stage2_tlb.read_misses            0                       # DTB read misses
system.cpu0.dstage2_mmu.stage2_tlb.write_hits            0                       # DTB write hits
system.cpu0.dstage2_mmu.stage2_tlb.write_misses            0                       # DTB write misses
system.cpu0.dstage2_mmu.stage2_tlb.flush_tlb            0                       # Number of times complete TLB was flushed
system.cpu0.dstage2_mmu.stage2_tlb.flush_tlb_mva            0                       # Number of times TLB was flushed by MVA
system.cpu0.dstage2_mmu.stage2_tlb.flush_tlb_mva_asid            0                       # Number of times TLB was flushed by MVA & ASID
system.cpu0.dstage2_mmu.stage2_tlb.flush_tlb_asid            0                       # Number of times TLB was flushed by ASID
system.cpu0.dstage2_mmu.stage2_tlb.flush_entries            0                       # Number of entries that have been flushed from TLB
system.cpu0.dstage2_mmu.stage2_tlb.align_faults            0                       # Number of TLB faults due to alignment restrictions
system.cpu0.dstage2_mmu.stage2_tlb.prefetch_faults            0                       # Number of TLB faults due to prefetch
system.cpu0.dstage2_mmu.stage2_tlb.domain_faults            0                       # Number of TLB faults due to domain restrictions
system.cpu0.dstage2_mmu.stage2_tlb.perms_faults            0                       # Number of TLB faults due to permissions restrictions
system.cpu0.dstage2_mmu.stage2_tlb.read_accesses            0                       # DTB read accesses
system.cpu0.dstage2_mmu.stage2_tlb.write_accesses            0                       # DTB write accesses
system.cpu0.dstage2_mmu.stage2_tlb.inst_accesses            0                       # ITB inst accesses
system.cpu0.dstage2_mmu.stage2_tlb.hits             0                       # DTB hits
system.cpu0.dstage2_mmu.stage2_tlb.misses            0                       # DTB misses
system.cpu0.dstage2_mmu.stage2_tlb.accesses            0                       # DTB accesses
system.cpu0.dtb.walker.walks                        0                       # Table walker walks requested
system.cpu0.dtb.walker.walkRequestOrigin_Requested::Data            0                       # Table walker requests started/completed, data/inst
system.cpu0.dtb.walker.walkRequestOrigin_Requested::Inst            0                       # Table walker requests started/completed, data/inst
system.cpu0.dtb.walker.walkRequestOrigin_Requested::total            0                       # Table walker requests started/completed, data/inst
system.cpu0.dtb.walker.walkRequestOrigin_Completed::Data            0                       # Table walker requests started/completed, data/inst
system.cpu0.dtb.walker.walkRequestOrigin_Completed::Inst            0                       # Table walker requests started/completed, data/inst
system.cpu0.dtb.walker.walkRequestOrigin_Completed::total            0                       # Table walker requests started/completed, data/inst
system.cpu0.dtb.walker.walkRequestOrigin::total            0                       # Table walker requests started/completed, data/inst
system.cpu0.dtb.inst_hits                           0                       # ITB inst hits
system.cpu0.dtb.inst_misses                         0                       # ITB inst misses
system.cpu0.dtb.read_hits                           0                       # DTB read hits
system.cpu0.dtb.read_misses                         0                       # DTB read misses
system.cpu0.dtb.write_hits                          0                       # DTB write hits
system.cpu0.dtb.write_misses                        0                       # DTB write misses
system.cpu0.dtb.flush_tlb                           0                       # Number of times complete TLB was flushed
system.cpu0.dtb.flush_tlb_mva                       0                       # Number of times TLB was flushed by MVA
system.cpu0.dtb.flush_tlb_mva_asid                  0                       # Number of times TLB was flushed by MVA & ASID
system.cpu0.dtb.flush_tlb_asid                      0                       # Number of times TLB was flushed by ASID
system.cpu0.dtb.flush_entries                       0                       # Number of entries that have been flushed from TLB
system.cpu0.dtb.align_faults                        0                       # Number of TLB faults due to alignment restrictions
system.cpu0.dtb.prefetch_faults                     0                       # Number of TLB faults due to prefetch
system.cpu0.dtb.domain_faults                       0                       # Number of TLB faults due to domain restrictions
system.cpu0.dtb.perms_faults                        0                       # Number of TLB faults due to permissions restrictions
system.cpu0.dtb.read_accesses                       0                       # DTB read accesses
system.cpu0.dtb.write_accesses                      0                       # DTB write accesses
system.cpu0.dtb.inst_accesses                       0                       # ITB inst accesses
system.cpu0.dtb.hits                                0                       # DTB hits
system.cpu0.dtb.misses                              0                       # DTB misses
system.cpu0.dtb.accesses                            0                       # DTB accesses
system.cpu0.istage2_mmu.stage2_tlb.walker.walks            0                       # Table walker walks requested
system.cpu0.istage2_mmu.stage2_tlb.walker.walkRequestOrigin_Requested::Data            0                       # Table walker requests started/completed, data/inst
system.cpu0.istage2_mmu.stage2_tlb.walker.walkRequestOrigin_Requested::Inst            0                       # Table walker requests started/completed, data/inst
system.cpu0.istage2_mmu.stage2_tlb.walker.walkRequestOrigin_Requested::total            0                       # Table walker requests started/completed, data/inst
system.cpu0.istage2_mmu.stage2_tlb.walker.walkRequestOrigin_Completed::Data            0                       # Table walker requests started/completed, data/inst
system.cpu0.istage2_mmu.stage2_tlb.walker.walkRequestOrigin_Completed::Inst            0                       # Table walker requests started/completed, data/inst
system.cpu0.istage2_mmu.stage2_tlb.walker.walkRequestOrigin_Completed::total            0                       # Table walker requests started/completed, data/inst
system.cpu0.istage2_mmu.stage2_tlb.walker.walkRequestOrigin::total            0                       # Table walker requests started/completed, data/inst
system.cpu0.istage2_mmu.stage2_tlb.inst_hits            0                       # ITB inst hits
system.cpu0.istage2_mmu.stage2_tlb.inst_misses            0                       # ITB inst misses
system.cpu0.istage2_mmu.stage2_tlb.read_hits            0                       # DTB read hits
system.cpu0.istage2_mmu.stage2_tlb.read_misses            0                       # DTB read misses
system.cpu0.istage2_mmu.stage2_tlb.write_hits            0                       # DTB write hits
system.cpu0.istage2_mmu.stage2_tlb.write_misses            0                       # DTB write misses
system.cpu0.istage2_mmu.stage2_tlb.flush_tlb            0                       # Number of times complete TLB was flushed
system.cpu0.istage2_mmu.stage2_tlb.flush_tlb_mva            0                       # Number of times TLB was flushed by MVA
system.cpu0.istage2_mmu.stage2_tlb.flush_tlb_mva_asid            0                       # Number of times TLB was flushed by MVA & ASID
system.cpu0.istage2_mmu.stage2_tlb.flush_tlb_asid            0                       # Number of times TLB was flushed by ASID
system.cpu0.istage2_mmu.stage2_tlb.flush_entries            0                       # Number of entries that have been flushed from TLB
system.cpu0.istage2_mmu.stage2_tlb.align_faults            0                       # Number of TLB faults due to alignment restrictions
system.cpu0.istage2_mmu.stage2_tlb.prefetch_faults            0                       # Number of TLB faults due to prefetch
system.cpu0.istage2_mmu.stage2_tlb.domain_faults            0                       # Number of TLB faults due to domain restrictions
system.cpu0.istage2_mmu.stage2_tlb.perms_faults            0                       # Number of TLB faults due to permissions restrictions
system.cpu0.istage2_mmu.stage2_tlb.read_accesses            0                       # DTB read accesses
system.cpu0.istage2_mmu.stage2_tlb.write_accesses            0                       # DTB write accesses
system.cpu0.istage2_mmu.stage2_tlb.inst_accesses            0                       # ITB inst accesses
system.cpu0.istage2_mmu.stage2_tlb.hits             0                       # DTB hits
system.cpu0.istage2_mmu.stage2_tlb.misses            0                       # DTB misses
system.cpu0.istage2_mmu.stage2_tlb.accesses            0                       # DTB accesses
system.cpu0.itb.walker.walks                        0                       # Table walker walks requested
system.cpu0.itb.walker.walkRequestOrigin_Requested::Data            0                       # Table walker requests started/completed, data/inst
system.cpu0.itb.walker.walkRequestOrigin_Requested::Inst            0                       # Table walker requests started/completed, data/inst
system.cpu0.itb.walker.walkRequestOrigin_Requested::total            0                       # Table walker requests started/completed, data/inst
system.cpu0.itb.walker.walkRequestOrigin_Completed::Data            0                       # Table walker requests started/completed, data/inst
system.cpu0.itb.walker.walkRequestOrigin_Completed::Inst            0                       # Table walker requests started/completed, data/inst
system.cpu0.itb.walker.walkRequestOrigin_Completed::total            0                       # Table walker requests started/completed, data/inst
system.cpu0.itb.walker.walkRequestOrigin::total            0                       # Table walker requests started/completed, data/inst
system.cpu0.itb.inst_hits                           0                       # ITB inst hits
system.cpu0.itb.inst_misses                         0                       # ITB inst misses
system.cpu0.itb.read_hits                           0                       # DTB read hits
system.cpu0.itb.read_misses                         0                       # DTB read misses
system.cpu0.itb.write_hits                          0                       # DTB write hits
system.cpu0.itb.write_misses                        0                       # DTB write misses
system.cpu0.itb.flush_tlb                           0                       # Number of times complete TLB was flushed
system.cpu0.itb.flush_tlb_mva                       0                       # Number of times TLB was flushed by MVA
system.cpu0.itb.flush_tlb_mva_asid                  0                       # Number of times TLB was flushed by MVA & ASID
system.cpu0.itb.flush_tlb_asid                      0                       # Number of times TLB was flushed by ASID
system.cpu0.itb.flush_entries                       0                       # Number of entries that have been flushed from TLB
system.cpu0.itb.align_faults                        0                       # Number of TLB faults due to alignment restrictions
system.cpu0.itb.prefetch_faults                     0                       # Number of TLB faults due to prefetch
system.cpu0.itb.domain_faults                       0                       # Number of TLB faults due to domain restrictions
system.cpu0.itb.perms_faults                        0                       # Number of TLB faults due to permissions restrictions
system.cpu0.itb.read_accesses                       0                       # DTB read accesses
system.cpu0.itb.write_accesses                      0                       # DTB write accesses
system.cpu0.itb.inst_accesses                       0                       # ITB inst accesses
system.cpu0.itb.hits                                0                       # DTB hits
system.cpu0.itb.misses                              0                       # DTB misses
system.cpu0.itb.accesses                            0                       # DTB accesses
system.cpu0.workload.num_syscalls                 135                       # Number of system calls
system.cpu0.numCycles                           88817                       # number of cpu cycles simulated
system.cpu0.numWorkItemsStarted                     0                       # number of work items this cpu started
system.cpu0.numWorkItemsCompleted                   0                       # number of work items this cpu completed
system.cpu0.fetch.icacheStallCycles             21077                       # Number of cycles fetch is stalled on an Icache miss
system.cpu0.fetch.Insts                         66164                       # Number of instructions fetch has processed
system.cpu0.fetch.Branches                      11119                       # Number of branches that fetch encountered
system.cpu0.fetch.predictedBranches              5679                       # Number of branches that fetch has predicted taken
system.cpu0.fetch.Cycles                        33214                       # Number of cycles fetch has run and was not squashing or blocked
system.cpu0.fetch.SquashCycles                   2115                       # Number of cycles fetch has spent squashing
system.cpu0.fetch.PendingTrapStallCycles            4                       # Number of stall cycles due to pending traps
system.cpu0.fetch.CacheLines                     7754                       # Number of cache lines fetched
system.cpu0.fetch.IcacheSquashes                  637                       # Number of outstanding Icache misses that were squashed
system.cpu0.fetch.rateDist::samples             55352                       # Number of instructions fetched each cycle (Total)
system.cpu0.fetch.rateDist::mean             1.364377                       # Number of instructions fetched each cycle (Total)
system.cpu0.fetch.rateDist::stdev            2.724715                       # Number of instructions fetched each cycle (Total)
system.cpu0.fetch.rateDist::underflows              0      0.00%      0.00% # Number of instructions fetched each cycle (Total)
system.cpu0.fetch.rateDist::0                   42135     76.12%     76.12% # Number of instructions fetched each cycle (Total)
system.cpu0.fetch.rateDist::1                    1044      1.89%     78.01% # Number of instructions fetched each cycle (Total)
system.cpu0.fetch.rateDist::2                    1336      2.41%     80.42% # Number of instructions fetched each cycle (Total)
system.cpu0.fetch.rateDist::3                     804      1.45%     81.87% # Number of instructions fetched each cycle (Total)
system.cpu0.fetch.rateDist::4                    1223      2.21%     84.08% # Number of instructions fetched each cycle (Total)
system.cpu0.fetch.rateDist::5                     707      1.28%     85.36% # Number of instructions fetched each cycle (Total)
system.cpu0.fetch.rateDist::6                    1190      2.15%     87.51% # Number of instructions fetched each cycle (Total)
system.cpu0.fetch.rateDist::7                    1478      2.67%     90.18% # Number of instructions fetched each cycle (Total)
system.cpu0.fetch.rateDist::8                    5435      9.82%    100.00% # Number of instructions fetched each cycle (Total)
system.cpu0.fetch.rateDist::overflows               0      0.00%    100.00% # Number of instructions fetched each cycle (Total)
system.cpu0.fetch.rateDist::min_value               0                       # Number of instructions fetched each cycle (Total)
system.cpu0.fetch.rateDist::max_value               8                       # Number of instructions fetched each cycle (Total)
system.cpu0.fetch.rateDist::total               55352                       # Number of instructions fetched each cycle (Total)
system.cpu0.fetch.branchRate                 0.125190                       # Number of branch fetches per cycle
system.cpu0.fetch.rate                       0.744947                       # Number of inst fetches per cycle
system.cpu0.decode.IdleCycles                   16049                       # Number of cycles decode is idle
system.cpu0.decode.BlockedCycles                28273                       # Number of cycles decode is blocked
system.cpu0.decode.RunCycles                     7452                       # Number of cycles decode is running
system.cpu0.decode.UnblockCycles                 2826                       # Number of cycles decode is unblocking
system.cpu0.decode.SquashCycles                   752                       # Number of cycles decode is squashing
system.cpu0.decode.BranchResolved                1058                       # Number of times decode resolved a branch
system.cpu0.decode.BranchMispred                  318                       # Number of times decode detected a branch misprediction
system.cpu0.decode.DecodedInsts                 65548                       # Number of instructions handled by decode
system.cpu0.decode.SquashedInsts                 1161                       # Number of squashed instructions handled by decode
system.cpu0.rename.SquashCycles                   752                       # Number of cycles rename is squashing
system.cpu0.rename.IdleCycles                   17397                       # Number of cycles rename is idle
system.cpu0.rename.BlockCycles                   3661                       # Number of cycles rename is blocking
system.cpu0.rename.serializeStallCycles          9502                       # count of cycles rename stalled for serializing inst
system.cpu0.rename.RunCycles                     8867                       # Number of cycles rename is running
system.cpu0.rename.UnblockCycles                15173                       # Number of cycles rename is unblocking
system.cpu0.rename.RenamedInsts                 63427                       # Number of instructions processed by rename
system.cpu0.rename.ROBFullEvents                   11                       # Number of times rename has blocked due to ROB full
system.cpu0.rename.IQFullEvents                  5169                       # Number of times rename has blocked due to IQ full
system.cpu0.rename.LQFullEvents                   120                       # Number of times rename has blocked due to LQ full
system.cpu0.rename.SQFullEvents                  9557                       # Number of times rename has blocked due to SQ full
system.cpu0.rename.RenamedOperands              73200                       # Number of destination operands rename has renamed
system.cpu0.rename.RenameLookups               302059                       # Number of register rename lookups that rename has made
system.cpu0.rename.int_rename_lookups           84581                       # Number of integer rename lookups
system.cpu0.rename.fp_rename_lookups               22                       # Number of floating rename lookups
system.cpu0.rename.CommittedMaps                47651                       # Number of HB maps that are committed
system.cpu0.rename.UndoneMaps                   25549                       # Number of HB maps that are undone due to squashing
system.cpu0.rename.serializingInsts               148                       # count of serializing insts renamed
system.cpu0.rename.tempSerializingInsts           146                       # count of temporary serializing insts renamed
system.cpu0.rename.skidInsts                    13814                       # count of insts added to the skid buffer
system.cpu0.memDep0.insertedLoads                9611                       # Number of loads inserted to the mem dependence unit.
system.cpu0.memDep0.insertedStores               8778                       # Number of stores inserted to the mem dependence unit.
system.cpu0.memDep0.conflictingLoads              577                       # Number of conflicting loads.
system.cpu0.memDep0.conflictingStores             454                       # Number of conflicting stores.
system.cpu0.iq.iqInstsAdded                     60359                       # Number of instructions added to the IQ (excludes non-spec)
system.cpu0.iq.iqNonSpecInstsAdded                289                       # Number of non-speculative instructions added to the IQ
system.cpu0.iq.iqInstsIssued                    45396                       # Number of instructions issued
system.cpu0.iq.iqSquashedInstsIssued             2033                       # Number of squashed instructions issued
system.cpu0.iq.iqSquashedInstsExamined          19826                       # Number of squashed instructions iterated over during squash; mainly for profiling
system.cpu0.iq.iqSquashedOperandsExamined        74313                       # Number of squashed operands that are examined and possibly removed from graph
system.cpu0.iq.iqSquashedNonSpecRemoved            85                       # Number of squashed non-spec instructions that were removed
system.cpu0.iq.issued_per_cycle::samples        55352                       # Number of insts issued each cycle
system.cpu0.iq.issued_per_cycle::mean        0.820133                       # Number of insts issued each cycle
system.cpu0.iq.issued_per_cycle::stdev       0.955546                       # Number of insts issued each cycle
system.cpu0.iq.issued_per_cycle::underflows            0      0.00%      0.00% # Number of insts issued each cycle
system.cpu0.iq.issued_per_cycle::0              31143     56.26%     56.26% # Number of insts issued each cycle
system.cpu0.iq.issued_per_cycle::1               3022      5.46%     61.72% # Number of insts issued each cycle
system.cpu0.iq.issued_per_cycle::2              21187     38.28%    100.00% # Number of insts issued each cycle
system.cpu0.iq.issued_per_cycle::overflows            0      0.00%    100.00% # Number of insts issued each cycle
system.cpu0.iq.issued_per_cycle::min_value            0                       # Number of insts issued each cycle
system.cpu0.iq.issued_per_cycle::max_value            2                       # Number of insts issued each cycle
system.cpu0.iq.issued_per_cycle::total          55352                       # Number of insts issued each cycle
system.cpu0.iq.fu_full::No_OpClass                  0                       # attempts to use FU when none available
system.cpu0.iq.fu_full::IntAlu                      0                       # attempts to use FU when none available
system.cpu0.iq.fu_full::IntMult                     0                       # attempts to use FU when none available
system.cpu0.iq.fu_full::IntDiv                      0                       # attempts to use FU when none available
system.cpu0.iq.fu_full::FloatAdd                    0                       # attempts to use FU when none available
system.cpu0.iq.fu_full::FloatCmp                    0                       # attempts to use FU when none available
system.cpu0.iq.fu_full::FloatCvt                    0                       # attempts to use FU when none available
system.cpu0.iq.fu_full::FloatMult                   0                       # attempts to use FU when none available
system.cpu0.iq.fu_full::FloatDiv                    0                       # attempts to use FU when none available
system.cpu0.iq.fu_full::FloatSqrt                   0                       # attempts to use FU when none available
system.cpu0.iq.fu_full::SimdAdd                     0                       # attempts to use FU when none available
system.cpu0.iq.fu_full::SimdAddAcc                  0                       # attempts to use FU when none available
system.cpu0.iq.fu_full::SimdAlu                     0                       # attempts to use FU when none available
system.cpu0.iq.fu_full::SimdCmp                     0                       # attempts to use FU when none available
system.cpu0.iq.fu_full::SimdCvt                     0                       # attempts to use FU when none available
system.cpu0.iq.fu_full::SimdMisc                    0                       # attempts to use FU when none available
system.cpu0.iq.fu_full::SimdMult                    0                       # attempts to use FU when none available
system.cpu0.iq.fu_full::SimdMultAcc                 0                       # attempts to use FU when none available
system.cpu0.iq.fu_full::SimdShift                   0                       # attempts to use FU when none available
system.cpu0.iq.fu_full::SimdShiftAcc                0                       # attempts to use FU when none available
system.cpu0.iq.fu_full::SimdSqrt                    0                       # attempts to use FU when none available
system.cpu0.iq.fu_full::SimdFloatAdd                0                       # attempts to use FU when none available
system.cpu0.iq.fu_full::SimdFloatAlu                0                       # attempts to use FU when none available
system.cpu0.iq.fu_full::SimdFloatCmp                0                       # attempts to use FU when none available
system.cpu0.iq.fu_full::SimdFloatCvt                0                       # attempts to use FU when none available
system.cpu0.iq.fu_full::SimdFloatDiv                0                       # attempts to use FU when none available
system.cpu0.iq.fu_full::SimdFloatMisc               0                       # attempts to use FU when none available
system.cpu0.iq.fu_full::SimdFloatMult               0                       # attempts to use FU when none available
system.cpu0.iq.fu_full::SimdFloatMultAcc            0                       # attempts to use FU when none available
system.cpu0.iq.fu_full::SimdFloatSqrt               0                       # attempts to use FU when none available
system.cpu0.iq.fu_full::MemRead                     0                       # attempts to use FU when none available
system.cpu0.iq.fu_full::MemWrite                    0                       # attempts to use FU when none available
system.cpu0.iq.fu_full::IprAccess                   0                       # attempts to use FU when none available
system.cpu0.iq.fu_full::InstPrefetch                0                       # attempts to use FU when none available
system.cpu0.iq.FU_type_0::No_OpClass                0      0.00%      0.00% # Type of FU issued
system.cpu0.iq.FU_type_0::IntAlu                29002     63.89%     63.89% # Type of FU issued
system.cpu0.iq.FU_type_0::IntMult                2114      4.66%     68.54% # Type of FU issued
system.cpu0.iq.FU_type_0::IntDiv                    0      0.00%     68.54% # Type of FU issued
system.cpu0.iq.FU_type_0::FloatAdd                  0      0.00%     68.54% # Type of FU issued
system.cpu0.iq.FU_type_0::FloatCmp                  0      0.00%     68.54% # Type of FU issued
system.cpu0.iq.FU_type_0::FloatCvt                  0      0.00%     68.54% # Type of FU issued
system.cpu0.iq.FU_type_0::FloatMult                 0      0.00%     68.54% # Type of FU issued
system.cpu0.iq.FU_type_0::FloatDiv                  0      0.00%     68.54% # Type of FU issued
system.cpu0.iq.FU_type_0::FloatSqrt                 0      0.00%     68.54% # Type of FU issued
system.cpu0.iq.FU_type_0::SimdAdd                   0      0.00%     68.54% # Type of FU issued
system.cpu0.iq.FU_type_0::SimdAddAcc                0      0.00%     68.54% # Type of FU issued
system.cpu0.iq.FU_type_0::SimdAlu                   0      0.00%     68.54% # Type of FU issued
system.cpu0.iq.FU_type_0::SimdCmp                   0      0.00%     68.54% # Type of FU issued
system.cpu0.iq.FU_type_0::SimdCvt                   0      0.00%     68.54% # Type of FU issued
system.cpu0.iq.FU_type_0::SimdMisc                  0      0.00%     68.54% # Type of FU issued
system.cpu0.iq.FU_type_0::SimdMult                  0      0.00%     68.54% # Type of FU issued
system.cpu0.iq.FU_type_0::SimdMultAcc               0      0.00%     68.54% # Type of FU issued
system.cpu0.iq.FU_type_0::SimdShift                 0      0.00%     68.54% # Type of FU issued
system.cpu0.iq.FU_type_0::SimdShiftAcc              0      0.00%     68.54% # Type of FU issued
system.cpu0.iq.FU_type_0::SimdSqrt                  0      0.00%     68.54% # Type of FU issued
system.cpu0.iq.FU_type_0::SimdFloatAdd              0      0.00%     68.54% # Type of FU issued
system.cpu0.iq.FU_type_0::SimdFloatAlu              0      0.00%     68.54% # Type of FU issued
system.cpu0.iq.FU_type_0::SimdFloatCmp              0      0.00%     68.54% # Type of FU issued
system.cpu0.iq.FU_type_0::SimdFloatCvt              0      0.00%     68.54% # Type of FU issued
system.cpu0.iq.FU_type_0::SimdFloatDiv              0      0.00%     68.54% # Type of FU issued
system.cpu0.iq.FU_type_0::SimdFloatMisc             3      0.01%     68.55% # Type of FU issued
system.cpu0.iq.FU_type_0::SimdFloatMult             0      0.00%     68.55% # Type of FU issued
system.cpu0.iq.FU_type_0::SimdFloatMultAcc            0      0.00%     68.55% # Type of FU issued
system.cpu0.iq.FU_type_0::SimdFloatSqrt             0      0.00%     68.55% # Type of FU issued
system.cpu0.iq.FU_type_0::MemRead                7219     15.90%     84.45% # Type of FU issued
system.cpu0.iq.FU_type_0::MemWrite               7058     15.55%    100.00% # Type of FU issued
system.cpu0.iq.FU_type_0::IprAccess                 0      0.00%    100.00% # Type of FU issued
system.cpu0.iq.FU_type_0::InstPrefetch              0      0.00%    100.00% # Type of FU issued
system.cpu0.iq.FU_type_0::total                 45396                       # Type of FU issued
system.cpu0.iq.rate                          0.511118                       # Inst issue rate
system.cpu0.iq.fu_busy_cnt                          0                       # FU busy when requested
system.cpu0.iq.fu_busy_rate                         0                       # FU busy rate (busy events/executed inst)
system.cpu0.iq.int_inst_queue_reads            148121                       # Number of integer instruction queue reads
system.cpu0.iq.int_inst_queue_writes            80476                       # Number of integer instruction queue writes
system.cpu0.iq.int_inst_queue_wakeup_accesses        44306                       # Number of integer instruction queue wakeup accesses
system.cpu0.iq.fp_inst_queue_reads                 56                       # Number of floating instruction queue reads
system.cpu0.iq.fp_inst_queue_writes                28                       # Number of floating instruction queue writes
system.cpu0.iq.fp_inst_queue_wakeup_accesses           28                       # Number of floating instruction queue wakeup accesses
system.cpu0.iq.int_alu_accesses                 45368                       # Number of integer alu accesses
system.cpu0.iq.fp_alu_accesses                     28                       # Number of floating point alu accesses
system.cpu0.iew.lsq.thread0.forwLoads              67                       # Number of loads that had data forwarded from stores
system.cpu0.iew.lsq.thread0.invAddrLoads            0                       # Number of loads ignored due to an invalid address
system.cpu0.iew.lsq.thread0.squashedLoads         3774                       # Number of loads squashed
system.cpu0.iew.lsq.thread0.ignoredResponses            3                       # Number of memory responses ignored because the instruction is squashed
system.cpu0.iew.lsq.thread0.memOrderViolation           30                       # Number of memory ordering violations
system.cpu0.iew.lsq.thread0.squashedStores         2075                       # Number of stores squashed
system.cpu0.iew.lsq.thread0.invAddrSwpfs            0                       # Number of software prefetches ignored due to an invalid address
system.cpu0.iew.lsq.thread0.blockedLoads            0                       # Number of blocked loads due to partial load-store forwarding
system.cpu0.iew.lsq.thread0.rescheduledLoads           29                       # Number of loads that were rescheduled
system.cpu0.iew.lsq.thread0.cacheBlocked           55                       # Number of times an access to memory failed due to the cache being blocked
system.cpu0.iew.iewIdleCycles                       0                       # Number of cycles IEW is idle
system.cpu0.iew.iewSquashCycles                   752                       # Number of cycles IEW is squashing
system.cpu0.iew.iewBlockCycles                   2744                       # Number of cycles IEW is blocking
system.cpu0.iew.iewUnblockCycles                  484                       # Number of cycles IEW is unblocking
system.cpu0.iew.iewDispatchedInsts              60657                       # Number of instructions dispatched to IQ
system.cpu0.iew.iewDispSquashedInsts              104                       # Number of squashed instructions skipped by dispatch
system.cpu0.iew.iewDispLoadInsts                 9611                       # Number of dispatched load instructions
system.cpu0.iew.iewDispStoreInsts                8778                       # Number of dispatched store instructions
system.cpu0.iew.iewDispNonSpecInsts               134                       # Number of dispatched non-speculative instructions
system.cpu0.iew.iewIQFullEvents                    13                       # Number of times the IQ has become full, causing a stall
system.cpu0.iew.iewLSQFullEvents                  457                       # Number of times the LSQ has become full, causing a stall
system.cpu0.iew.memOrderViolationEvents            30                       # Number of memory order violations
system.cpu0.iew.predictedTakenIncorrect           186                       # Number of branches that were predicted taken incorrectly
system.cpu0.iew.predictedNotTakenIncorrect          543                       # Number of branches that were predicted not taken incorrectly
system.cpu0.iew.branchMispredicts                 729                       # Number of branch mispredicts detected at execute
system.cpu0.iew.iewExecutedInsts                44935                       # Number of executed instructions
system.cpu0.iew.iewExecLoadInsts                 7015                       # Number of load instructions executed
system.cpu0.iew.iewExecSquashedInsts              461                       # Number of squashed instructions skipped in execute
system.cpu0.iew.exec_swp                            0                       # number of swp insts executed
system.cpu0.iew.exec_nop                            9                       # number of nop insts executed
system.cpu0.iew.exec_refs                       13944                       # number of memory reference insts executed
system.cpu0.iew.exec_branches                    6050                       # Number of branches executed
system.cpu0.iew.exec_stores                      6929                       # Number of stores executed
system.cpu0.iew.exec_rate                    0.505928                       # Inst execution rate
system.cpu0.iew.wb_sent                         44513                       # cumulative count of insts sent to commit
system.cpu0.iew.wb_count                        44334                       # cumulative count of insts written-back
system.cpu0.iew.wb_producers                    27845                       # num instructions producing a value
system.cpu0.iew.wb_consumers                    62191                       # num instructions consuming a value
system.cpu0.iew.wb_penalized                        0                       # number of instrctions required to write to 'other' IQ
system.cpu0.iew.wb_rate                      0.499161                       # insts written-back per cycle
system.cpu0.iew.wb_fanout                    0.447734                       # average fanout of values written-back
system.cpu0.iew.wb_penalized_rate                   0                       # fraction of instructions written-back that wrote to 'other' IQ
system.cpu0.commit.commitSquashedInsts          19838                       # The number of squashed insts skipped by commit
system.cpu0.commit.commitNonSpecStalls            204                       # The number of times commit has been forced to stall to communicate backwards
system.cpu0.commit.branchMispredicts              695                       # The number of times a branch was mispredicted
system.cpu0.commit.committed_per_cycle::samples        52385                       # Number of insts commited each cycle
system.cpu0.commit.committed_per_cycle::mean     0.779269                       # Number of insts commited each cycle
system.cpu0.commit.committed_per_cycle::stdev     1.493832                       # Number of insts commited each cycle
system.cpu0.commit.committed_per_cycle::underflows            0      0.00%      0.00% # Number of insts commited each cycle
system.cpu0.commit.committed_per_cycle::0        34822     66.47%     66.47% # Number of insts commited each cycle
system.cpu0.commit.committed_per_cycle::1         6270     11.97%     78.44% # Number of insts commited each cycle
system.cpu0.commit.committed_per_cycle::2         7329     13.99%     92.43% # Number of insts commited each cycle
system.cpu0.commit.committed_per_cycle::3         1286      2.45%     94.89% # Number of insts commited each cycle
system.cpu0.commit.committed_per_cycle::4          450      0.86%     95.75% # Number of insts commited each cycle
system.cpu0.commit.committed_per_cycle::5          700      1.34%     97.08% # Number of insts commited each cycle
system.cpu0.commit.committed_per_cycle::6          688      1.31%     98.40% # Number of insts commited each cycle
[...]
system.cpu7.icache.overall_miss_latency::cpu7.inst      4905250                       # number of overall miss cycles
system.cpu7.icache.overall_miss_latency::total      4905250                       # number of overall miss cycles
system.cpu7.icache.ReadReq_accesses::cpu7.inst         2072                       # number of ReadReq accesses(hits+misses)
system.cpu7.icache.ReadReq_accesses::total         2072                       # number of ReadReq accesses(hits+misses)
system.cpu7.icache.demand_accesses::cpu7.inst         2072                       # number of demand (read+write) accesses
system.cpu7.icache.demand_accesses::total         2072                       # number of demand (read+write) accesses
system.cpu7.icache.overall_accesses::cpu7.inst         2072                       # number of overall (read+write) accesses
system.cpu7.icache.overall_accesses::total         2072                       # number of overall (read+write) accesses
system.cpu7.icache.ReadReq_miss_rate::cpu7.inst     0.036197                       # miss rate for ReadReq accesses
system.cpu7.icache.ReadReq_miss_rate::total     0.036197                       # miss rate for ReadReq accesses
system.cpu7.icache.demand_miss_rate::cpu7.inst     0.036197                       # miss rate for demand accesses
system.cpu7.icache.demand_miss_rate::total     0.036197                       # miss rate for demand accesses
system.cpu7.icache.overall_miss_rate::cpu7.inst     0.036197                       # miss rate for overall accesses
system.cpu7.icache.overall_miss_rate::total     0.036197                       # miss rate for overall accesses
system.cpu7.icache.ReadReq_avg_miss_latency::cpu7.inst 65403.333333                       # average ReadReq miss latency
system.cpu7.icache.ReadReq_avg_miss_latency::total 65403.333333                       # average ReadReq miss latency
system.cpu7.icache.demand_avg_miss_latency::cpu7.inst 65403.333333                       # average overall miss latency
system.cpu7.icache.demand_avg_miss_latency::total 65403.333333                       # average overall miss latency
system.cpu7.icache.overall_avg_miss_latency::cpu7.inst 65403.333333                       # average overall miss latency
system.cpu7.icache.overall_avg_miss_latency::total 65403.333333                       # average overall miss latency
system.cpu7.icache.blocked_cycles::no_mshrs          145                       # number of cycles access was blocked
system.cpu7.icache.blocked_cycles::no_targets            0                       # number of cycles access was blocked
system.cpu7.icache.blocked::no_mshrs                1                       # number of cycles access was blocked
system.cpu7.icache.blocked::no_targets              0                       # number of cycles access was blocked
system.cpu7.icache.avg_blocked_cycles::no_mshrs          145                       # average number of cycles each access was blocked
system.cpu7.icache.avg_blocked_cycles::no_targets          nan                       # average number of cycles each access was blocked
system.cpu7.icache.fast_writes                      0                       # number of fast writes performed
system.cpu7.icache.cache_copies                     0                       # number of cache copies performed
system.cpu7.icache.ReadReq_mshr_hits::cpu7.inst           25                       # number of ReadReq MSHR hits
system.cpu7.icache.ReadReq_mshr_hits::total           25                       # number of ReadReq MSHR hits
system.cpu7.icache.demand_mshr_hits::cpu7.inst           25                       # number of demand (read+write) MSHR hits
system.cpu7.icache.demand_mshr_hits::total           25                       # number of demand (read+write) MSHR hits
system.cpu7.icache.overall_mshr_hits::cpu7.inst           25                       # number of overall MSHR hits
system.cpu7.icache.overall_mshr_hits::total           25                       # number of overall MSHR hits
system.cpu7.icache.ReadReq_mshr_misses::cpu7.inst           50                       # number of ReadReq MSHR misses
system.cpu7.icache.ReadReq_mshr_misses::total           50                       # number of ReadReq MSHR misses
system.cpu7.icache.demand_mshr_misses::cpu7.inst           50                       # number of demand (read+write) MSHR misses
system.cpu7.icache.demand_mshr_misses::total           50                       # number of demand (read+write) MSHR misses
system.cpu7.icache.overall_mshr_misses::cpu7.inst           50                       # number of overall MSHR misses
system.cpu7.icache.overall_mshr_misses::total           50                       # number of overall MSHR misses
system.cpu7.icache.ReadReq_mshr_miss_latency::cpu7.inst      3646250                       # number of ReadReq MSHR miss cycles
system.cpu7.icache.ReadReq_mshr_miss_latency::total      3646250                       # number of ReadReq MSHR miss cycles
system.cpu7.icache.demand_mshr_miss_latency::cpu7.inst      3646250                       # number of demand (read+write) MSHR miss cycles
system.cpu7.icache.demand_mshr_miss_latency::total      3646250                       # number of demand (read+write) MSHR miss cycles
system.cpu7.icache.overall_mshr_miss_latency::cpu7.inst      3646250                       # number of overall MSHR miss cycles
system.cpu7.icache.overall_mshr_miss_latency::total      3646250                       # number of overall MSHR miss cycles
system.cpu7.icache.ReadReq_mshr_miss_rate::cpu7.inst     0.024131                       # mshr miss rate for ReadReq accesses
system.cpu7.icache.ReadReq_mshr_miss_rate::total     0.024131                       # mshr miss rate for ReadReq accesses
system.cpu7.icache.demand_mshr_miss_rate::cpu7.inst     0.024131                       # mshr miss rate for demand accesses
system.cpu7.icache.demand_mshr_miss_rate::total     0.024131                       # mshr miss rate for demand accesses
system.cpu7.icache.overall_mshr_miss_rate::cpu7.inst     0.024131                       # mshr miss rate for overall accesses
system.cpu7.icache.overall_mshr_miss_rate::total     0.024131                       # mshr miss rate for overall accesses
system.cpu7.icache.ReadReq_avg_mshr_miss_latency::cpu7.inst        72925                       # average ReadReq mshr miss latency
system.cpu7.icache.ReadReq_avg_mshr_miss_latency::total        72925                       # average ReadReq mshr miss latency
system.cpu7.icache.demand_avg_mshr_miss_latency::cpu7.inst        72925                       # average overall mshr miss latency
system.cpu7.icache.demand_avg_mshr_miss_latency::total        72925                       # average overall mshr miss latency
system.cpu7.icache.overall_avg_mshr_miss_latency::cpu7.inst        72925                       # average overall mshr miss latency
system.cpu7.icache.overall_avg_mshr_miss_latency::total        72925                       # average overall mshr miss latency
system.cpu7.icache.no_allocate_misses               0                       # Number of misses that were no-allocate
system.membus.trans_dist::ReadReq                1644                       # Transaction distribution
system.membus.trans_dist::ReadResp               1643                       # Transaction distribution
system.membus.trans_dist::Writeback                17                       # Transaction distribution
system.membus.trans_dist::UpgradeReq               19                       # Transaction distribution
system.membus.trans_dist::SCUpgradeReq             23                       # Transaction distribution
system.membus.trans_dist::UpgradeResp              42                       # Transaction distribution
system.membus.trans_dist::SCUpgradeFailReq            2                       # Transaction distribution
system.membus.trans_dist::UpgradeFailResp            2                       # Transaction distribution
system.membus.trans_dist::ReadExReq               329                       # Transaction distribution
system.membus.trans_dist::ReadExResp              329                       # Transaction distribution
system.membus.pkt_count_system.cpu0.icache.mem_side::system.mem_ctrls.port         1209                       # Packet count per connected master and slave (bytes)
system.membus.pkt_count_system.cpu0.dcache.mem_side::system.mem_ctrls.port          869                       # Packet count per connected master and slave (bytes)
system.membus.pkt_count_system.cpu1.icache.mem_side::system.mem_ctrls.port          106                       # Packet count per connected master and slave (bytes)
system.membus.pkt_count_system.cpu1.dcache.mem_side::system.mem_ctrls.port          103                       # Packet count per connected master and slave (bytes)
system.membus.pkt_count_system.cpu2.icache.mem_side::system.mem_ctrls.port          108                       # Packet count per connected master and slave (bytes)
system.membus.pkt_count_system.cpu2.dcache.mem_side::system.mem_ctrls.port          105                       # Packet count per connected master and slave (bytes)
system.membus.pkt_count_system.cpu3.icache.mem_side::system.mem_ctrls.port          108                       # Packet count per connected master and slave (bytes)
system.membus.pkt_count_system.cpu3.dcache.mem_side::system.mem_ctrls.port          109                       # Packet count per connected master and slave (bytes)
system.membus.pkt_count_system.cpu4.icache.mem_side::system.mem_ctrls.port          100                       # Packet count per connected master and slave (bytes)
system.membus.pkt_count_system.cpu4.dcache.mem_side::system.mem_ctrls.port          108                       # Packet count per connected master and slave (bytes)
system.membus.pkt_count_system.cpu5.icache.mem_side::system.mem_ctrls.port          102                       # Packet count per connected master and slave (bytes)
system.membus.pkt_count_system.cpu5.dcache.mem_side::system.mem_ctrls.port          107                       # Packet count per connected master and slave (bytes)
system.membus.pkt_count_system.cpu6.icache.mem_side::system.mem_ctrls.port          108                       # Packet count per connected master and slave (bytes)
system.membus.pkt_count_system.cpu6.dcache.mem_side::system.mem_ctrls.port          106                       # Packet count per connected master and slave (bytes)
system.membus.pkt_count_system.cpu7.icache.mem_side::system.mem_ctrls.port          100                       # Packet count per connected master and slave (bytes)
system.membus.pkt_count_system.cpu7.dcache.mem_side::system.mem_ctrls.port          104                       # Packet count per connected master and slave (bytes)
system.membus.pkt_count::total                   3552                       # Packet count per connected master and slave (bytes)
system.membus.pkt_size_system.cpu0.icache.mem_side::system.mem_ctrls.port        38656                       # Cumulative packet size per connected master and slave (bytes)
system.membus.pkt_size_system.cpu0.dcache.mem_side::system.mem_ctrls.port        27456                       # Cumulative packet size per connected master and slave (bytes)
system.membus.pkt_size_system.cpu1.icache.mem_side::system.mem_ctrls.port         3392                       # Cumulative packet size per connected master and slave (bytes)
system.membus.pkt_size_system.cpu1.dcache.mem_side::system.mem_ctrls.port         1152                       # Cumulative packet size per connected master and slave (bytes)
system.membus.pkt_size_system.cpu2.icache.mem_side::system.mem_ctrls.port         3456                       # Cumulative packet size per connected master and slave (bytes)
system.membus.pkt_size_system.cpu2.dcache.mem_side::system.mem_ctrls.port         1152                       # Cumulative packet size per connected master and slave (bytes)
system.membus.pkt_size_system.cpu3.icache.mem_side::system.mem_ctrls.port         3456                       # Cumulative packet size per connected master and slave (bytes)
system.membus.pkt_size_system.cpu3.dcache.mem_side::system.mem_ctrls.port         1088                       # Cumulative packet size per connected master and slave (bytes)
system.membus.pkt_size_system.cpu4.icache.mem_side::system.mem_ctrls.port         3200                       # Cumulative packet size per connected master and slave (bytes)
system.membus.pkt_size_system.cpu4.dcache.mem_side::system.mem_ctrls.port         1152                       # Cumulative packet size per connected master and slave (bytes)
system.membus.pkt_size_system.cpu5.icache.mem_side::system.mem_ctrls.port         3264                       # Cumulative packet size per connected master and slave (bytes)
system.membus.pkt_size_system.cpu5.dcache.mem_side::system.mem_ctrls.port         1152                       # Cumulative packet size per connected master and slave (bytes)
system.membus.pkt_size_system.cpu6.icache.mem_side::system.mem_ctrls.port         3456                       # Cumulative packet size per connected master and slave (bytes)
system.membus.pkt_size_system.cpu6.dcache.mem_side::system.mem_ctrls.port         1088                       # Cumulative packet size per connected master and slave (bytes)
system.membus.pkt_size_system.cpu7.icache.mem_side::system.mem_ctrls.port         3200                       # Cumulative packet size per connected master and slave (bytes)
system.membus.pkt_size_system.cpu7.dcache.mem_side::system.mem_ctrls.port         1152                       # Cumulative packet size per connected master and slave (bytes)
system.membus.pkt_size::total                   97472                       # Cumulative packet size per connected master and slave (bytes)
system.membus.snoops                              498                       # Total snoops (count)
system.membus.snoop_fanout::samples              2034                       # Request fanout histogram
system.membus.snoop_fanout::mean                   15                       # Request fanout histogram
system.membus.snoop_fanout::stdev                   0                       # Request fanout histogram
system.membus.snoop_fanout::underflows              0      0.00%      0.00% # Request fanout histogram
system.membus.snoop_fanout::0                       0      0.00%      0.00% # Request fanout histogram
system.membus.snoop_fanout::1                       0      0.00%      0.00% # Request fanout histogram
system.membus.snoop_fanout::2                       0      0.00%      0.00% # Request fanout histogram
system.membus.snoop_fanout::3                       0      0.00%      0.00% # Request fanout histogram
system.membus.snoop_fanout::4                       0      0.00%      0.00% # Request fanout histogram
system.membus.snoop_fanout::5                       0      0.00%      0.00% # Request fanout histogram
system.membus.snoop_fanout::6                       0      0.00%      0.00% # Request fanout histogram
system.membus.snoop_fanout::7                       0      0.00%      0.00% # Request fanout histogram
system.membus.snoop_fanout::8                       0      0.00%      0.00% # Request fanout histogram
system.membus.snoop_fanout::9                       0      0.00%      0.00% # Request fanout histogram
system.membus.snoop_fanout::10                      0      0.00%      0.00% # Request fanout histogram
system.membus.snoop_fanout::11                      0      0.00%      0.00% # Request fanout histogram
system.membus.snoop_fanout::12                      0      0.00%      0.00% # Request fanout histogram
system.membus.snoop_fanout::13                      0      0.00%      0.00% # Request fanout histogram
system.membus.snoop_fanout::14                      0      0.00%      0.00% # Request fanout histogram
system.membus.snoop_fanout::15                   2034    100.00%    100.00% # Request fanout histogram
system.membus.snoop_fanout::16                      0      0.00%    100.00% # Request fanout histogram
system.membus.snoop_fanout::overflows               0      0.00%    100.00% # Request fanout histogram
system.membus.snoop_fanout::min_value              15                       # Request fanout histogram
system.membus.snoop_fanout::max_value              15                       # Request fanout histogram
system.membus.snoop_fanout::total                2034                       # Request fanout histogram
system.membus.reqLayer0.occupancy             2515498                       # Layer occupancy (ticks)
system.membus.reqLayer0.utilization               5.7                       # Layer utilization (%)
system.membus.respLayer1.occupancy            3214000                       # Layer occupancy (ticks)
system.membus.respLayer1.utilization              7.2                       # Layer utilization (%)
system.membus.respLayer2.occupancy            2248990                       # Layer occupancy (ticks)
system.membus.respLayer2.utilization              5.1                       # Layer utilization (%)
system.membus.respLayer5.occupancy             285000                       # Layer occupancy (ticks)
system.membus.respLayer5.utilization              0.6                       # Layer utilization (%)
system.membus.respLayer6.occupancy             431480                       # Layer occupancy (ticks)
system.membus.respLayer6.utilization              1.0                       # Layer utilization (%)
system.membus.respLayer9.occupancy             290750                       # Layer occupancy (ticks)
system.membus.respLayer9.utilization              0.7                       # Layer utilization (%)
system.membus.respLayer10.occupancy            442972                       # Layer occupancy (ticks)
system.membus.respLayer10.utilization             1.0                       # Layer utilization (%)
system.membus.respLayer13.occupancy            291000                       # Layer occupancy (ticks)
system.membus.respLayer13.utilization             0.7                       # Layer utilization (%)
system.membus.respLayer14.occupancy            469973                       # Layer occupancy (ticks)
system.membus.respLayer14.utilization             1.1                       # Layer utilization (%)
system.membus.respLayer17.occupancy            270250                       # Layer occupancy (ticks)
system.membus.respLayer17.utilization             0.6                       # Layer utilization (%)
system.membus.respLayer18.occupancy            454718                       # Layer occupancy (ticks)
system.membus.respLayer18.utilization             1.0                       # Layer utilization (%)
system.membus.respLayer21.occupancy            273500                       # Layer occupancy (ticks)
system.membus.respLayer21.utilization             0.6                       # Layer utilization (%)
system.membus.respLayer22.occupancy            456218                       # Layer occupancy (ticks)
system.membus.respLayer22.utilization             1.0                       # Layer utilization (%)
system.membus.respLayer25.occupancy            292750                       # Layer occupancy (ticks)
system.membus.respLayer25.utilization             0.7                       # Layer utilization (%)
system.membus.respLayer26.occupancy            449731                       # Layer occupancy (ticks)
system.membus.respLayer26.utilization             1.0                       # Layer utilization (%)
system.membus.respLayer29.occupancy            269250                       # Layer occupancy (ticks)
system.membus.respLayer29.utilization             0.6                       # Layer utilization (%)
system.membus.respLayer30.occupancy            418738                       # Layer occupancy (ticks)
system.membus.respLayer30.utilization             0.9                       # Layer utilization (%)

---------- End Simulation Statistics   ----------
