
---------- Begin Simulation Statistics ----------
sim_seconds                                  0.000042                       # Number of seconds simulated
sim_ticks                                    42103000                       # Number of ticks simulated
final_tick                                   42103000                       # Number of ticks from beginning of simulation (restored from checkpoints and never reset)
sim_freq                                 1000000000000                       # Frequency of simulated ticks
host_inst_rate                                 205527                       # Simulator instruction rate (inst/s)
host_op_rate                                   215345                       # Simulator op (including micro ops) rate (op/s)
host_tick_rate                               36667727                       # Simulator tick rate (ticks/s)
host_mem_usage                                 679188                       # Number of bytes of host memory used
host_seconds                                     1.15                       # Real time elapsed on the host
sim_insts                                      235986                       # Number of instructions simulated
sim_ops                                        247262                       # Number of ops (including micro ops) simulated
system.voltage_domain.voltage                       1                       # Voltage in Volts
system.clk_domain.clock                          1000                       # Clock period in ticks
system.mem_ctrls.bytes_read::cpu0.inst          38464                       # Number of bytes read from this memory
system.mem_ctrls.bytes_read::cpu0.data          26560                       # Number of bytes read from this memory
system.mem_ctrls.bytes_read::cpu1.inst           3328                       # Number of bytes read from this memory
system.mem_ctrls.bytes_read::cpu1.data           1088                       # Number of bytes read from this memory
system.mem_ctrls.bytes_read::cpu2.inst           3392                       # Number of bytes read from this memory
system.mem_ctrls.bytes_read::cpu2.data           1216                       # Number of bytes read from this memory
system.mem_ctrls.bytes_read::cpu3.inst           3456                       # Number of bytes read from this memory
system.mem_ctrls.bytes_read::cpu3.data           1152                       # Number of bytes read from this memory
system.mem_ctrls.bytes_read::cpu4.inst           3136                       # Number of bytes read from this memory
system.mem_ctrls.bytes_read::cpu4.data           1152                       # Number of bytes read from this memory
system.mem_ctrls.bytes_read::cpu5.inst           3456                       # Number of bytes read from this memory
system.mem_ctrls.bytes_read::cpu5.data           1152                       # Number of bytes read from this memory
system.mem_ctrls.bytes_read::cpu6.inst           3328                       # Number of bytes read from this memory
system.mem_ctrls.bytes_read::cpu6.data           1088                       # Number of bytes read from this memory
system.mem_ctrls.bytes_read::cpu7.inst           3200                       # Number of bytes read from this memory
system.mem_ctrls.bytes_read::cpu7.data           1152                       # Number of bytes read from this memory
system.mem_ctrls.bytes_read::total              96320                       # Number of bytes read from this memory
system.mem_ctrls.bytes_inst_read::cpu0.inst        38464                       # Number of instructions bytes read from this memory
system.mem_ctrls.bytes_inst_read::cpu1.inst         3328                       # Number of instructions bytes read from this memory
system.mem_ctrls.bytes_inst_read::cpu2.inst         3392                       # Number of instructions bytes read from this memory
system.mem_ctrls.bytes_inst_read::cpu3.inst         3456                       # Number of instructions bytes read from this memory
system.mem_ctrls.bytes_inst_read::cpu4.inst         3136                       # Number of instructions bytes read from this memory
system.mem_ctrls.bytes_inst_read::cpu5.inst         3456                       # Number of instructions bytes read from this memory
system.mem_ctrls.bytes_inst_read::cpu6.inst         3328                       # Number of instructions bytes read from this memory
system.mem_ctrls.bytes_inst_read::cpu7.inst         3200                       # Number of instructions bytes read from this memory
system.mem_ctrls.bytes_inst_read::total         61760                       # Number of instructions bytes read from this memory
system.mem_ctrls.bytes_written::writebacks         1088                       # Number of bytes written to this memory
system.mem_ctrls.bytes_written::total            1088                       # Number of bytes written to this memory
system.mem_ctrls.num_reads::cpu0.inst             601                       # Number of read requests responded to by this memory
system.mem_ctrls.num_reads::cpu0.data             415                       # Number of read requests responded to by this memory
system.mem_ctrls.num_reads::cpu1.inst              52                       # Number of read requests responded to by this memory
system.mem_ctrls.num_reads::cpu1.data              17                       # Number of read requests responded to by this memory
system.mem_ctrls.num_reads::cpu2.inst              53                       # Number of read requests responded to by this memory
system.mem_ctrls.num_reads::cpu2.data              19                       # Number of read requests responded to by this memory
system.mem_ctrls.num_reads::cpu3.inst              54                       # Number of read requests responded to by this memory
system.mem_ctrls.num_reads::cpu3.data              18                       # Number of read requests responded to by this memory
system.mem_ctrls.num_reads::cpu4.inst              49                       # Number of read requests responded to by this memory
system.mem_ctrls.num_reads::cpu4.data              18                       # Number of read requests responded to by this memory
system.mem_ctrls.num_reads::cpu5.inst              54                       # Number of read requests responded to by this memory
system.mem_ctrls.num_reads::cpu5.data              18                       # Number of read requests responded to by this memory
system.mem_ctrls.num_reads::cpu6.inst              52                       # Number of read requests responded to by this memory
system.mem_ctrls.num_reads::cpu6.data              17                       # Number of read requests responded to by this memory
system.mem_ctrls.num_reads::cpu7.inst              50                       # Number of read requests responded to by this memory
system.mem_ctrls.num_reads::cpu7.data              18                       # Number of read requests responded to by this memory
system.mem_ctrls.num_reads::total                1505                       # Number of read requests responded to by this memory
system.mem_ctrls.num_writes::writebacks            17                       # Number of write requests responded to by this memory
system.mem_ctrls.num_writes::total                 17                       # Number of write requests responded to by this memory
system.mem_ctrls.bw_read::cpu0.inst         913569104                       # Total read bandwidth from this memory (bytes/s)
system.mem_ctrls.bw_read::cpu0.data         630833907                       # Total read bandwidth from this memory (bytes/s)
system.mem_ctrls.bw_read::cpu1.inst          79044249                       # Total read bandwidth from this memory (bytes/s)
system.mem_ctrls.bw_read::cpu1.data          25841389                       # Total read bandwidth from this memory (bytes/s)
system.mem_ctrls.bw_read::cpu2.inst          80564330                       # Total read bandwidth from this memory (bytes/s)
system.mem_ctrls.bw_read::cpu2.data          28881552                       # Total read bandwidth from this memory (bytes/s)
system.mem_ctrls.bw_read::cpu3.inst          82084412                       # Total read bandwidth from this memory (bytes/s)
system.mem_ctrls.bw_read::cpu3.data          27361471                       # Total read bandwidth from this memory (bytes/s)
system.mem_ctrls.bw_read::cpu4.inst          74484004                       # Total read bandwidth from this memory (bytes/s)
system.mem_ctrls.bw_read::cpu4.data          27361471                       # Total read bandwidth from this memory (bytes/s)
system.mem_ctrls.bw_read::cpu5.inst          82084412                       # Total read bandwidth from this memory (bytes/s)
system.mem_ctrls.bw_read::cpu5.data          27361471                       # Total read bandwidth from this memory (bytes/s)
system.mem_ctrls.bw_read::cpu6.inst          79044249                       # Total read bandwidth from this memory (bytes/s)
system.mem_ctrls.bw_read::cpu6.data          25841389                       # Total read bandwidth from this memory (bytes/s)
system.mem_ctrls.bw_read::cpu7.inst          76004085                       # Total read bandwidth from this memory (bytes/s)
system.mem_ctrls.bw_read::cpu7.data          27361471                       # Total read bandwidth from this memory (bytes/s)
system.mem_ctrls.bw_read::total            2287722965                       # Total read bandwidth from this memory (bytes/s)
system.mem_ctrls.bw_inst_read::cpu0.inst    913569104                       # Instruction read bandwidth from this memory (bytes/s)
system.mem_ctrls.bw_inst_read::cpu1.inst     79044249                       # Instruction read bandwidth from this memory (bytes/s)
system.mem_ctrls.bw_inst_read::cpu2.inst     80564330                       # Instruction read bandwidth from this memory (bytes/s)
system.mem_ctrls.bw_inst_read::cpu3.inst     82084412                       # Instruction read bandwidth from this memory (bytes/s)
system.mem_ctrls.bw_inst_read::cpu4.inst     74484004                       # Instruction read bandwidth from this memory (bytes/s)
system.mem_ctrls.bw_inst_read::cpu5.inst     82084412                       # Instruction read bandwidth from this memory (bytes/s)
system.mem_ctrls.bw_inst_read::cpu6.inst     79044249                       # Instruction read bandwidth from this memory (bytes/s)
system.mem_ctrls.bw_inst_read::cpu7.inst     76004085                       # Instruction read bandwidth from this memory (bytes/s)
system.mem_ctrls.bw_inst_read::total       1466878845                       # Instruction read bandwidth from this memory (bytes/s)
system.mem_ctrls.bw_write::writebacks        25841389                       # Write bandwidth from this memory (bytes/s)
system.mem_ctrls.bw_write::total             25841389                       # Write bandwidth from this memory (bytes/s)
system.mem_ctrls.bw_total::writebacks        25841389                       # Total bandwidth to/from this memory (bytes/s)
system.mem_ctrls.bw_total::cpu0.inst        913569104                       # Total bandwidth to/from this memory (bytes/s)
system.mem_ctrls.bw_total::cpu0.data        630833907                       # Total bandwidth to/from this memory (bytes/s)
system.mem_ctrls.bw_total::cpu1.inst         79044249                       # Total bandwidth to/from this memory (bytes/s)
system.mem_ctrls.bw_total::cpu1.data         25841389                       # Total bandwidth to/from this memory (bytes/s)
system.mem_ctrls.bw_total::cpu2.inst         80564330                       # Total bandwidth to/from this memory (bytes/s)
system.mem_ctrls.bw_total::cpu2.data         28881552                       # Total bandwidth to/from this memory (bytes/s)
system.mem_ctrls.bw_total::cpu3.inst         82084412                       # Total bandwidth to/from this memory (bytes/s)
system.mem_ctrls.bw_total::cpu3.data         27361471                       # Total bandwidth to/from this memory (bytes/s)
system.mem_ctrls.bw_total::cpu4.inst         74484004                       # Total bandwidth to/from this memory (bytes/s)
system.mem_ctrls.bw_total::cpu4.data         27361471                       # Total bandwidth to/from this memory (bytes/s)
system.mem_ctrls.bw_total::cpu5.inst         82084412                       # Total bandwidth to/from this memory (bytes/s)
system.mem_ctrls.bw_total::cpu5.data         27361471                       # Total bandwidth to/from this memory (bytes/s)
system.mem_ctrls.bw_total::cpu6.inst         79044249                       # Total bandwidth to/from this memory (bytes/s)
system.mem_ctrls.bw_total::cpu6.data         25841389                       # Total bandwidth to/from this memory (bytes/s)
system.mem_ctrls.bw_total::cpu7.inst         76004085                       # Total bandwidth to/from this memory (bytes/s)
system.mem_ctrls.bw_total::cpu7.data         27361471                       # Total bandwidth to/from this memory (bytes/s)
system.mem_ctrls.bw_total::total           2313564354                       # Total bandwidth to/from this memory (bytes/s)
system.mem_ctrls.readReqs                        1506                       # Number of read requests accepted
system.mem_ctrls.writeReqs                         17                       # Number of write requests accepted
system.mem_ctrls.readBursts                      1506                       # Number of DRAM read bursts, including those serviced by the write queue
system.mem_ctrls.writeBursts                       17                       # Number of DRAM write bursts, including those merged in the write queue
system.mem_ctrls.bytesReadDRAM                  95040                       # Total number of bytes read from DRAM
system.mem_ctrls.bytesReadWrQ                    1344                       # Total number of bytes read from write queue
system.mem_ctrls.bytesWritten                       0                       # Total number of bytes written to DRAM
system.mem_ctrls.bytesReadSys                   96384                       # Total read bytes from the system interface side
system.mem_ctrls.bytesWrittenSys                 1088                       # Total written bytes from the system interface side
system.mem_ctrls.servicedByWrQ                     21                       # Number of DRAM read bursts serviced by the write queue
system.mem_ctrls.mergedWrBursts                     2                       # Number of DRAM write bursts merged with an existing one
system.mem_ctrls.neitherReadNorWriteReqs           24                       # Number of requests that are neither read nor write
system.mem_ctrls.perBankRdBursts::0               204                       # Per bank write bursts
system.mem_ctrls.perBankRdBursts::1               357                       # Per bank write bursts
system.mem_ctrls.perBankRdBursts::2               220                       # Per bank write bursts
system.mem_ctrls.perBankRdBursts::3               239                       # Per bank write bursts
system.mem_ctrls.perBankRdBursts::4                62                       # Per bank write bursts
system.mem_ctrls.perBankRdBursts::5                51                       # Per bank write bursts
system.mem_ctrls.perBankRdBursts::6               118                       # Per bank write bursts
system.mem_ctrls.perBankRdBursts::7                35                       # Per bank write bursts
system.mem_ctrls.perBankRdBursts::8                14                       # Per bank write bursts
system.mem_ctrls.perBankRdBursts::9                10                       # Per bank write bursts
system.mem_ctrls.perBankRdBursts::10                0                       # Per bank write bursts
system.mem_ctrls.perBankRdBursts::11               14                       # Per bank write bursts
system.mem_ctrls.perBankRdBursts::12                9                       # Per bank write bursts
system.mem_ctrls.perBankRdBursts::13               38                       # Per bank write bursts
system.mem_ctrls.perBankRdBursts::14               40                       # Per bank write bursts
system.mem_ctrls.perBankRdBursts::15               74                       # Per bank write bursts
system.mem_ctrls.perBankWrBursts::0                 0                       # Per bank write bursts
system.mem_ctrls.perBankWrBursts::1                 0                       # Per bank write bursts
system.mem_ctrls.perBankWrBursts::2                 0                       # Per bank write bursts
system.mem_ctrls.perBankWrBursts::3                 0                       # Per bank write bursts
system.mem_ctrls.perBankWrBursts::4                 0                       # Per bank write bursts
system.mem_ctrls.perBankWrBursts::5                 0                       # Per bank write bursts
system.mem_ctrls.perBankWrBursts::6                 0                       # Per bank write bursts
system.mem_ctrls.perBankWrBursts::7                 0                       # Per bank write bursts
system.mem_ctrls.perBankWrBursts::8                 0                       # Per bank write bursts
system.mem_ctrls.perBankWrBursts::9                 0                       # Per bank write bursts
system.mem_ctrls.perBankWrBursts::10                0                       # Per bank write bursts
system.mem_ctrls.perBankWrBursts::11                0                       # Per bank write bursts
system.mem_ctrls.perBankWrBursts::12                0                       # Per bank write bursts
system.mem_ctrls.perBankWrBursts::13                0                       # Per bank write bursts
system.mem_ctrls.perBankWrBursts::14                0                       # Per bank write bursts
system.mem_ctrls.perBankWrBursts::15                0                       # Per bank write bursts
system.mem_ctrls.numRdRetry                         0                       # Number of times read queue was full causing retry
system.mem_ctrls.numWrRetry                         0                       # Number of times write queue was full causing retry
system.mem_ctrls.totGap                      42095500                       # Total gap between requests
system.mem_ctrls.readPktSize::0                     0                       # Read request sizes (log2)
system.mem_ctrls.readPktSize::1                     0                       # Read request sizes (log2)
system.mem_ctrls.readPktSize::2                     0                       # Read request sizes (log2)
system.mem_ctrls.readPktSize::3                     0                       # Read request sizes (log2)
system.mem_ctrls.readPktSize::4                     0                       # Read request sizes (log2)
system.mem_ctrls.readPktSize::5                     0                       # Read request sizes (log2)
system.mem_ctrls.readPktSize::6                  1506                       # Read request sizes (log2)
system.mem_ctrls.writePktSize::0                    0                       # Write request sizes (log2)
system.mem_ctrls.writePktSize::1                    0                       # Write request sizes (log2)
system.mem_ctrls.writePktSize::2                    0                       # Write request sizes (log2)
system.mem_ctrls.writePktSize::3                    0                       # Write request sizes (log2)
system.mem_ctrls.writePktSize::4                    0                       # Write request sizes (log2)
system.mem_ctrls.writePktSize::5                    0                       # Write request sizes (log2)
system.mem_ctrls.writePktSize::6                   17                       # Write request sizes (log2)
system.mem_ctrls.rdQLenPdf::0                     545                       # What read queue length does an incoming req see
system.mem_ctrls.rdQLenPdf::1                     348                       # What read queue length does an incoming req see
system.mem_ctrls.rdQLenPdf::2                     115                       # What read queue length does an incoming req see
system.mem_ctrls.rdQLenPdf::3                      66                       # What read queue length does an incoming req see
system.mem_ctrls.rdQLenPdf::4                      54                       # What read queue length does an incoming req see
system.mem_ctrls.rdQLenPdf::5                      59                       # What read queue length does an incoming req see
system.mem_ctrls.rdQLenPdf::6                      53                       # What read queue length does an incoming req see
system.mem_ctrls.rdQLenPdf::7                      49                       # What read queue length does an incoming req see
system.mem_ctrls.rdQLenPdf::8                      36                       # What read queue length does an incoming req see
system.mem_ctrls.rdQLenPdf::9                      41                       # What read queue length does an incoming req see
system.mem_ctrls.rdQLenPdf::10                     26                       # What read queue length does an incoming req see
system.mem_ctrls.rdQLenPdf::11                     27                       # What read queue length does an incoming req see
system.mem_ctrls.rdQLenPdf::12                     23                       # What read queue length does an incoming req see
system.mem_ctrls.rdQLenPdf::13                     17                       # What read queue length does an incoming req see
system.mem_ctrls.rdQLenPdf::14                     13                       # What read queue length does an incoming req see
system.mem_ctrls.rdQLenPdf::15                      6                       # What read queue length does an incoming req see
system.mem_ctrls.rdQLenPdf::16                      1                       # What read queue length does an incoming req see
system.mem_ctrls.rdQLenPdf::17                      1                       # What read queue length does an incoming req see
system.mem_ctrls.rdQLenPdf::18                      2                       # What read queue length does an incoming req see
system.mem_ctrls.rdQLenPdf::19                      1                       # What read queue length does an incoming req see
system.mem_ctrls.rdQLenPdf::20                      1                       # What read queue length does an incoming req see
system.mem_ctrls.rdQLenPdf::21                      1                       # What read queue length does an incoming req see
system.mem_ctrls.rdQLenPdf::22                      0                       # What read queue length does an incoming req see
system.mem_ctrls.rdQLenPdf::23                      0                       # What read queue length does an incoming req see
system.mem_ctrls.rdQLenPdf::24                      0                       # What read queue length does an incoming req see
system.mem_ctrls.rdQLenPdf::25                      0                       # What read queue length does an incoming req see
system.mem_ctrls.rdQLenPdf::26                      0                       # What read queue length does an incoming req see
system.mem_ctrls.rdQLenPdf::27                      0                       # What read queue length does an incoming req see
system.mem_ctrls.rdQLenPdf::28                      0                       # What read queue length does an incoming req see
system.mem_ctrls.rdQLenPdf::29                      0                       # What read queue length does an incoming req see
system.mem_ctrls.rdQLenPdf::30                      0                       # What read queue length does an incoming req see
system.mem_ctrls.rdQLenPdf::31                      0                       # What read queue length does an incoming req see
system.mem_ctrls.wrQLenPdf::0                       1                       # What write queue length does an incoming req see
system.mem_ctrls.wrQLenPdf::1                       1                       # What write queue length does an incoming req see
system.mem_ctrls.wrQLenPdf::2                       1                       # What write queue length does an incoming req see
system.mem_ctrls.wrQLenPdf::3                       1                       # What write queue length does an incoming req see
system.mem_ctrls.wrQLenPdf::4                       1                       # What write queue length does an incoming req see
system.mem_ctrls.wrQLenPdf::5                       1                       # What write queue length does an incoming req see
system.mem_ctrls.wrQLenPdf::6                       1                       # What write queue length does an incoming req see
system.mem_ctrls.wrQLenPdf::7                       1                       # What write queue length does an incoming req see
system.mem_ctrls.wrQLenPdf::8                       1                       # What write queue length does an incoming req see
system.mem_ctrls.wrQLenPdf::9                       1                       # What write queue length does an incoming req see
system.mem_ctrls.wrQLenPdf::10                      1                       # What write queue length does an incoming req see
system.mem_ctrls.wrQLenPdf::11                      1                       # What write queue length does an incoming req see
system.mem_ctrls.wrQLenPdf::12                      1                       # What write queue length does an incoming req see
system.mem_ctrls.wrQLenPdf::13                      1                       # What write queue length does an incoming req see
system.mem_ctrls.wrQLenPdf::14                      1                       # What write queue length does an incoming req see
system.mem_ctrls.wrQLenPdf::15                      0                       # What write queue length does an incoming req see
system.mem_ctrls.wrQLenPdf::16                      0                       # What write queue length does an incoming req see
system.mem_ctrls.wrQLenPdf::17                      0                       # What write queue length does an incoming req see
system.mem_ctrls.wrQLenPdf::18                      0                       # What write queue length does an incoming req see
system.mem_ctrls.wrQLenPdf::19                      0                       # What write queue length does an incoming req see
system.mem_ctrls.wrQLenPdf::20                      0                       # What write queue length does an incoming req see
system.mem_ctrls.wrQLenPdf::21                      0                       # What write queue length does an incoming req see
system.mem_ctrls.wrQLenPdf::22                      0                       # What write queue length does an incoming req see
system.mem_ctrls.wrQLenPdf::23                      0                       # What write queue length does an incoming req see
system.mem_ctrls.wrQLenPdf::24                      0                       # What write queue length does an incoming req see
system.mem_ctrls.wrQLenPdf::25                      0                       # What write queue length does an incoming req see
system.mem_ctrls.wrQLenPdf::26                      0                       # What write queue length does an incoming req see
system.mem_ctrls.wrQLenPdf::27                      0                       # What write queue length does an incoming req see
system.mem_ctrls.wrQLenPdf::28                      0                       # What write queue length does an incoming req see
system.mem_ctrls.wrQLenPdf::29                      0                       # What write queue length does an incoming req see
system.mem_ctrls.wrQLenPdf::30                      0                       # What write queue length does an incoming req see
system.mem_ctrls.wrQLenPdf::31                      0                       # What write queue length does an incoming req see
system.mem_ctrls.wrQLenPdf::32                      0                       # What write queue length does an incoming req see
system.mem_ctrls.wrQLenPdf::33                      0                       # What write queue length does an incoming req see
system.mem_ctrls.wrQLenPdf::34                      0                       # What write queue length does an incoming req see
system.mem_ctrls.wrQLenPdf::35                      0                       # What write queue length does an incoming req see
system.mem_ctrls.wrQLenPdf::36                      0                       # What write queue length does an incoming req see
system.mem_ctrls.wrQLenPdf::37                      0                       # What write queue length does an incoming req see
system.mem_ctrls.wrQLenPdf::38                      0                       # What write queue length does an incoming req see
system.mem_ctrls.wrQLenPdf::39                      0                       # What write queue length does an incoming req see
system.mem_ctrls.wrQLenPdf::40                      0                       # What write queue length does an incoming req see
system.mem_ctrls.wrQLenPdf::41                      0                       # What write queue length does an incoming req see
system.mem_ctrls.wrQLenPdf::42                      0                       # What write queue length does an incoming req see
system.mem_ctrls.wrQLenPdf::43                      0                       # What write queue length does an incoming req see
system.mem_ctrls.wrQLenPdf::44                      0                       # What write queue length does an incoming req see
system.mem_ctrls.wrQLenPdf::45                      0                       # What write queue length does an incoming req see
system.mem_ctrls.wrQLenPdf::46                      0                       # What write queue length does an incoming req see
system.mem_ctrls.wrQLenPdf::47                      0                       # What write queue length does an incoming req see
system.mem_ctrls.wrQLenPdf::48                      0                       # What write queue length does an incoming req see
system.mem_ctrls.wrQLenPdf::49                      0                       # What write queue length does an incoming req see
system.mem_ctrls.wrQLenPdf::50                      0                       # What write queue length does an incoming req see
system.mem_ctrls.wrQLenPdf::51                      0                       # What write queue length does an incoming req see
system.mem_ctrls.wrQLenPdf::52                      0                       # What write queue length does an incoming req see
system.mem_ctrls.wrQLenPdf::53                      0                       # What write queue length does an incoming req see
system.mem_ctrls.wrQLenPdf::54                      0                       # What write queue length does an incoming req see
system.mem_ctrls.wrQLenPdf::55                      0                       # What write queue length does an incoming req see
system.mem_ctrls.wrQLenPdf::56                      0                       # What write queue length does an incoming req see
system.mem_ctrls.wrQLenPdf::57                      0                       # What write queue length does an incoming req see
system.mem_ctrls.wrQLenPdf::58                      0                       # What write queue length does an incoming req see
system.mem_ctrls.wrQLenPdf::59                      0                       # What write queue length does an incoming req see
system.mem_ctrls.wrQLenPdf::60                      0                       # What write queue length does an incoming req see
system.mem_ctrls.wrQLenPdf::61                      0                       # What write queue length does an incoming req see
system.mem_ctrls.wrQLenPdf::62                      0                       # What write queue length does an incoming req see
system.mem_ctrls.wrQLenPdf::63                      0                       # What write queue length does an incoming req see
system.mem_ctrls.bytesPerActivate::samples          283                       # Bytes accessed per row activation
system.mem_ctrls.bytesPerActivate::mean    326.332155                       # Bytes accessed per row activation
system.mem_ctrls.bytesPerActivate::gmean   184.595170                       # Bytes accessed per row activation
system.mem_ctrls.bytesPerActivate::stdev   344.676458                       # Bytes accessed per row activation
system.mem_ctrls.bytesPerActivate::0-127          118     41.70%     41.70% # Bytes accessed per row activation
system.mem_ctrls.bytesPerActivate::128-255           51     18.02%     59.72% # Bytes accessed per row activation
system.mem_ctrls.bytesPerActivate::256-383           21      7.42%     67.14% # Bytes accessed per row activation
system.mem_ctrls.bytesPerActivate::384-511           22      7.77%     74.91% # Bytes accessed per row activation
system.mem_ctrls.bytesPerActivate::512-639           12      4.24%     79.15% # Bytes accessed per row activation
system.mem_ctrls.bytesPerActivate::640-767            9      3.18%     82.33% # Bytes accessed per row activation
system.mem_ctrls.bytesPerActivate::768-895            8      2.83%     85.16% # Bytes accessed per row activation
system.mem_ctrls.bytesPerActivate::896-1023            5      1.77%     86.93% # Bytes accessed per row activation
system.mem_ctrls.bytesPerActivate::1024-1151           37     13.07%    100.00% # Bytes accessed per row activation
system.mem_ctrls.bytesPerActivate::total          283                       # Bytes accessed per row activation
system.mem_ctrls.totQLat                     34074500                       # Total ticks spent queuing
system.mem_ctrls.totMemAccLat                61918250                       # Total ticks spent from burst creation until serviced by the DRAM
system.mem_ctrls.totBusLat                    7425000                       # Total ticks spent in databus transfers
system.mem_ctrls.avgQLat                     22945.79                       # Average queueing delay per DRAM burst
system.mem_ctrls.avgBusLat                    5000.00                       # Average bus latency per DRAM burst
system.mem_ctrls.avgMemAccLat                41695.79                       # Average memory access latency per DRAM burst
system.mem_ctrls.avgRdBW                      2257.32                       # Average DRAM read bandwidth in MiByte/s
system.mem_ctrls.avgWrBW                         0.00                       # Average achieved write bandwidth in MiByte/s
system.mem_ctrls.avgRdBWSys                   2289.24                       # Average system read bandwidth in MiByte/s
system.mem_ctrls.avgWrBWSys                     25.84                       # Average system write bandwidth in MiByte/s
system.mem_ctrls.peakBW                      12800.00                       # Theoretical peak bandwidth in MiByte/s
system.mem_ctrls.busUtil                        17.64                       # Data bus utilization in percentage
system.mem_ctrls.busUtilRead                    17.64                       # Data bus utilization in percentage for reads
system.mem_ctrls.busUtilWrite                    0.00                       # Data bus utilization in percentage for writes
system.mem_ctrls.avgRdQLen                       2.53                       # Average read queue length when enqueuing
system.mem_ctrls.avgWrQLen                       3.83                       # Average write queue length when enqueuing
system.mem_ctrls.readRowHits                     1190                       # Number of row buffer hits during reads
system.mem_ctrls.writeRowHits                       0                       # Number of row buffer hits during writes
system.mem_ctrls.readRowHitRate                 80.13                       # Row buffer hit rate for reads
system.mem_ctrls.writeRowHitRate                 0.00                       # Row buffer hit rate for writes
system.mem_ctrls.avgGap                      27639.86                       # Average gap between requests
system.mem_ctrls.pageHitRate                    79.33                       # Row buffer hit rate, read and write combined
system.mem_ctrls_0.actEnergy                  1806840                       # Energy for activate commands per rank (pJ)
system.mem_ctrls_0.preEnergy                   985875                       # Energy for precharge commands per rank (pJ)
system.mem_ctrls_0.readEnergy                 9516000                       # Energy for read commands per rank (pJ)
system.mem_ctrls_0.writeEnergy                      0                       # Energy for write commands per rank (pJ)
system.mem_ctrls_0.refreshEnergy              2542800                       # Energy for refresh commands per rank (pJ)
system.mem_ctrls_0.actBackEnergy             26628120                       # Energy for active background per rank (pJ)
system.mem_ctrls_0.preBackEnergy               161250                       # Energy for precharge background per rank (pJ)
system.mem_ctrls_0.totalEnergy               41640885                       # Total energy per rank (pJ)
system.mem_ctrls_0.averagePower           1062.301349                       # Core power per rank (mW)
system.mem_ctrls_0.memoryStateTime::IDLE        89500                       # Time in different power states
system.mem_ctrls_0.memoryStateTime::REF       1300000                       # Time in different power states
system.mem_ctrls_0.memoryStateTime::PRE_PDN            0                       # Time in different power states
system.mem_ctrls_0.memoryStateTime::ACT      37822750                       # Time in different power states
system.mem_ctrls_0.memoryStateTime::ACT_PDN            0                       # Time in different power states
system.mem_ctrls_1.actEnergy                   204120                       # Energy for activate commands per rank (pJ)
system.mem_ctrls_1.preEnergy                   111375                       # Energy for precharge commands per rank (pJ)
system.mem_ctrls_1.readEnergy                 1193400                       # Energy for read commands per rank (pJ)
system.mem_ctrls_1.writeEnergy                      0                       # Energy for write commands per rank (pJ)
system.mem_ctrls_1.refreshEnergy              2542800                       # Energy for refresh commands per rank (pJ)
system.mem_ctrls_1.actBackEnergy             23021730                       # Energy for active background per rank (pJ)
system.mem_ctrls_1.preBackEnergy              3320250                       # Energy for precharge background per rank (pJ)
system.mem_ctrls_1.totalEnergy               30393675                       # Total energy per rank (pJ)
system.mem_ctrls_1.averagePower            775.521960                       # Core power per rank (mW)
system.mem_ctrls_1.memoryStateTime::IDLE      5408250                       # Time in different power states
system.mem_ctrls_1.memoryStateTime::REF       1300000                       # Time in different power states
system.mem_ctrls_1.memoryStateTime::PRE_PDN            0                       # Time in different power states
system.mem_ctrls_1.memoryStateTime::ACT      32496750                       # Time in different power states
system.mem_ctrls_1.memoryStateTime::ACT_PDN            0                       # Time in different power states
system.cpu0.branchPred.lookups                  10699                       # Number of BP lookups
system.cpu0.branchPred.condPredicted             8456                       # Number of conditional branches predicted
system.cpu0.branchPred.condIncorrect             1007                       # Number of conditional branches incorrect
system.cpu0.branchPred.BTBLookups                7825                       # Number of BTB lookups
system.cpu0.branchPred.BTBHits                   4644                       # Number of BTB hits
system.cpu0.branchPred.BTBCorrect                   0                       # Number of correct BTB predictions (this stat may not work properly.
system.cpu0.branchPred.BTBHitPct            59.348243                       # BTB Hit Percentage
system.cpu0.branchPred.usedRAS                    861                       # Number of times the RAS was used to get a target.
system.cpu0.branchPred.RASInCorrect                13                       # Number of incorrect RAS predictions.
system.cpu_voltage_domain.voltage                   1                       # Voltage in Volts
system.cpu_clk_domain.clock                       500                       # Clock period in ticks
system.cpu0.dstage2_mmu.stage2_tlb.walker.walks            0                       # Table walker walks requested
system.cpu0.dstage2_mmu.stage2_tlb.walker.walkRequestOrigin_Requested::Data            0                       # Table walker requests started/completed, data/inst
system.cpu0.dstage2_mmu.stage2_tlb.walker.walkRequestOrigin_Requested::Inst            0                       # Table walker requests started/completed, data/inst
system.cpu0.dstage2_mmu.stage2_tlb.walker.walkRequestOrigin_Requested::total            0                       # Table walker requests started/completed, data/inst
system.cpu0.dstage2_mmu.stage2_tlb.walker.walkRequestOrigin_Completed::Data            0                       # Table walker requests started/completed, data/inst
system.cpu0.dstage2_mmu.stage2_tlb.walker.walkRequestOrigin_Completed::Inst            0                       # Table walker requests started/completed, data/inst
system.cpu0.dstage2_mmu.stage2_tlb.walker.walkRequestOrigin_Completed::total            0                       # Table walker requests started/completed, data/inst
system.cpu0.dstage2_mmu.stage2_tlb.walker.walkRequestOrigin::total            0                       # Table walker requests started/completed, data/inst
system.cpu0.dstage2_mmu.stage2_tlb.inst_hits            0                       # ITB inst hits
system.cpu0.dstage2_mmu.stage2_tlb.inst_misses            0                       # ITB inst misses
system.cpu0.dstage2_mmu.stage2_tlb.read_hits            0                       # DTB read hits
system.cpu0.dstage2_mmu.stage2_tlb.read_misses            0                       # DTB read misses
system.cpu0.dstage2_mmu.stage2_tlb.write_hits            0                       # DTB write hits
system.cpu0.dstage2_mmu.stage2_tlb.write_misses            0                       # DTB write misses
system.cpu0.dstage2_mmu.stage2_tlb.flush_tlb            0                       # Number of times complete TLB was flushed
system.cpu0.dstage2_mmu.stage2_tlb.flush_tlb_mva            0                       # Number of times TLB was flushed by MVA
system.cpu0.dstage2_mmu.stage2_tlb.flush_tlb_mva_asid            0                       # Number of times TLB was flushed by MVA & ASID
system.cpu0.dstage2_mmu.stage2_tlb.flush_tlb_asid            0                       # Number of times TLB was flushed by ASID
system.cpu0.dstage2_mmu.stage2_tlb.flush_entries            0                       # Number of entries that have been flushed from TLB
system.cpu0.dstage2_mmu.stage2_tlb.align_faults            0                       # Number of TLB faults due to alignment restrictions
system.cpu0.dstage2_mmu.stage2_tlb.prefetch_faults            0                       # Number of TLB faults due to prefetch
system.cpu0.dstage2_mmu.stage2_tlb.domain_faults            0                       # Number of TLB faults due to domain restrictions
system.cpu0.dstage2_mmu.stage2_tlb.perms_faults            0                       # Number of TLB faults due to permissions restrictions
system.cpu0.dstage2_mmu.stage2_tlb.read_accesses            0                       # DTB read accesses
system.cpu0.dstage2_mmu.stage2_tlb.write_accesses            0                       # DTB write accesses
system.cpu0.dstage2_mmu.stage2_tlb.inst_accesses            0                       # ITB inst accesses
system.cpu0.dstage2_mmu.stage2_tlb.hits             0                       # DTB hits
system.cpu0.dstage2_mmu.stage2_tlb.misses            0                       # DTB misses
system.cpu0.dstage2_mmu.stage2_tlb.accesses            0                       # DTB accesses
system.cpu0.dtb.walker.walks                        0                       # Table walker walks requested
system.cpu0.dtb.walker.walkRequestOrigin_Requested::Data            0                       # Table walker requests started/completed, data/inst
system.cpu0.dtb.walker.walkRequestOrigin_Requested::Inst            0                       # Table walker requests started/completed, data/inst
system.cpu0.dtb.walker.walkRequestOrigin_Requested::total            0                       # Table walker requests started/completed, data/inst
system.cpu0.dtb.walker.walkRequestOrigin_Completed::Data            0                       # Table walker requests started/completed, data/inst
system.cpu0.dtb.walker.walkRequestOrigin_Completed::Inst            0                       # Table walker requests started/completed, data/inst
system.cpu0.dtb.walker.walkRequestOrigin_Completed::total            0                       # Table walker requests started/completed, data/inst
system.cpu0.dtb.walker.walkRequestOrigin::total            0                       # Table walker requests started/completed, data/inst
system.cpu0.dtb.inst_hits                           0                       # ITB inst hits
system.cpu0.dtb.inst_misses                         0                       # ITB inst misses
system.cpu0.dtb.read_hits                           0                       # DTB read hits
system.cpu0.dtb.read_misses                         0                       # DTB read misses
system.cpu0.dtb.write_hits                          0                       # DTB write hits
system.cpu0.dtb.write_misses                        0                       # DTB write misses
system.cpu0.dtb.flush_tlb                           0                       # Number of times complete TLB was flushed
system.cpu0.dtb.flush_tlb_mva                       0                       # Number of times TLB was flushed by MVA
system.cpu0.dtb.flush_tlb_mva_asid                  0                       # Number of times TLB was flushed by MVA & ASID
system.cpu0.dtb.flush_tlb_asid                      0                       # Number of times TLB was flushed by ASID
system.cpu0.dtb.flush_entries                       0                       # Number of entries that have been flushed from TLB
system.cpu0.dtb.align_faults                        0                       # Number of TLB faults due to alignment restrictions
system.cpu0.dtb.prefetch_faults                     0                       # Number of TLB faults due to prefetch
system.cpu0.dtb.domain_faults                       0                       # Number of TLB faults due to domain restrictions
system.cpu0.dtb.perms_faults                        0                       # Number of TLB faults due to permissions restrictions
system.cpu0.dtb.read_accesses                       0                       # DTB read accesses
system.cpu0.dtb.write_accesses                      0                       # DTB write accesses
system.cpu0.dtb.inst_accesses                       0                       # ITB inst accesses
system.cpu0.dtb.hits                                0                       # DTB hits
system.cpu0.dtb.misses                              0                       # DTB misses
system.cpu0.dtb.accesses                            0                       # DTB accesses
system.cpu0.istage2_mmu.stage2_tlb.walker.walks            0                       # Table walker walks requested
system.cpu0.istage2_mmu.stage2_tlb.walker.walkRequestOrigin_Requested::Data            0                       # Table walker requests started/completed, data/inst
system.cpu0.istage2_mmu.stage2_tlb.walker.walkRequestOrigin_Requested::Inst            0                       # Table walker requests started/completed, data/inst
system.cpu0.istage2_mmu.stage2_tlb.walker.walkRequestOrigin_Requested::total            0                       # Table walker requests started/completed, data/inst
system.cpu0.istage2_mmu.stage2_tlb.walker.walkRequestOrigin_Completed::Data            0                       # Table walker requests started/completed, data/inst
system.cpu0.istage2_mmu.stage2_tlb.walker.walkRequestOrigin_Completed::Inst            0                       # Table walker requests started/completed, data/inst
system.cpu0.istage2_mmu.stage2_tlb.walker.walkRequestOrigin_Completed::total            0                       # Table walker requests started/completed, data/inst
system.cpu0.istage2_mmu.stage2_tlb.walker.walkRequestOrigin::total            0                       # Table walker requests started/completed, data/inst
system.cpu0.istage2_mmu.stage2_tlb.inst_hits            0                       # ITB inst hits
system.cpu0.istage2_mmu.stage2_tlb.inst_misses            0                       # ITB inst misses
system.cpu0.istage2_mmu.stage2_tlb.read_hits            0                       # DTB read hits
system.cpu0.istage2_mmu.stage2_tlb.read_misses            0                       # DTB read misses
system.cpu0.istage2_mmu.stage2_tlb.write_hits            0                       # DTB write hits
system.cpu0.istage2_mmu.stage2_tlb.write_misses            0                       # DTB write misses
system.cpu0.istage2_mmu.stage2_tlb.flush_tlb            0                       # Number of times complete TLB was flushed
system.cpu0.istage2_mmu.stage2_tlb.flush_tlb_mva            0                       # Number of times TLB was flushed by MVA
system.cpu0.istage2_mmu.stage2_tlb.flush_tlb_mva_asid            0                       # Number of times TLB was flushed by MVA & ASID
system.cpu0.istage2_mmu.stage2_tlb.flush_tlb_asid            0                       # Number of times TLB was flushed by ASID
system.cpu0.istage2_mmu.stage2_tlb.flush_entries            0                       # Number of entries that have been flushed from TLB
system.cpu0.istage2_mmu.stage2_tlb.align_faults            0                       # Number of TLB faults due to alignment restrictions
system.cpu0.istage2_mmu.stage2_tlb.prefetch_faults            0                       # Number of TLB faults due to prefetch
system.cpu0.istage2_mmu.stage2_tlb.domain_faults            0                       # Number of TLB faults due to domain restrictions
system.cpu0.istage2_mmu.stage2_tlb.perms_faults            0                       # Number of TLB faults due to permissions restrictions
system.cpu0.istage2_mmu.stage2_tlb.read_accesses            0                       # DTB read accesses
system.cpu0.istage2_mmu.stage2_tlb.write_accesses            0                       # DTB write accesses
system.cpu0.istage2_mmu.stage2_tlb.inst_accesses            0                       # ITB inst accesses
system.cpu0.istage2_mmu.stage2_tlb.hits             0                       # DTB hits
system.cpu0.istage2_mmu.stage2_tlb.misses            0                       # DTB misses
system.cpu0.istage2_mmu.stage2_tlb.accesses            0                       # DTB accesses
system.cpu0.itb.walker.walks                        0                       # Table walker walks requested
system.cpu0.itb.walker.walkRequestOrigin_Requested::Data            0                       # Table walker requests started/completed, data/inst
system.cpu0.itb.walker.walkRequestOrigin_Requested::Inst            0                       # Table walker requests started/completed, data/inst
system.cpu0.itb.walker.walkRequestOrigin_Requested::total            0                       # Table walker requests started/completed, data/inst
system.cpu0.itb.walker.walkRequestOrigin_Completed::Data            0                       # Table walker requests started/completed, data/inst
system.cpu0.itb.walker.walkRequestOrigin_Completed::Inst            0                       # Table walker requests started/completed, data/inst
system.cpu0.itb.walker.walkRequestOrigin_Completed::total            0                       # Table walker requests started/completed, data/inst
system.cpu0.itb.walker.walkRequestOrigin::total            0                       # Table walker requests started/completed, data/inst
system.cpu0.itb.inst_hits                           0                       # ITB inst hits
system.cpu0.itb.inst_misses                         0                       # ITB inst misses
system.cpu0.itb.read_hits                           0                       # DTB read hits
system.cpu0.itb.read_misses                         0                       # DTB read misses
system.cpu0.itb.write_hits                          0                       # DTB write hits
system.cpu0.itb.write_misses                        0                       # DTB write misses
system.cpu0.itb.flush_tlb                           0                       # Number of times complete TLB was flushed
system.cpu0.itb.flush_tlb_mva                       0                       # Number of times TLB was flushed by MVA
system.cpu0.itb.flush_tlb_mva_asid                  0                       # Number of times TLB was flushed by MVA & ASID
system.cpu0.itb.flush_tlb_asid                      0                       # Number of times TLB was flushed by ASID
system.cpu0.itb.flush_entries                       0                       # Number of entries that have been flushed from TLB
system.cpu0.itb.align_faults                        0                       # Number of TLB faults due to alignment restrictions
system.cpu0.itb.prefetch_faults                     0                       # Number of TLB faults due to prefetch
system.cpu0.itb.domain_faults                       0                       # Number of TLB faults due to domain restrictions
system.cpu0.itb.perms_faults                        0                       # Number of TLB faults due to permissions restrictions
system.cpu0.itb.read_accesses                       0                       # DTB read accesses
system.cpu0.itb.write_accesses                      0                       # DTB write accesses
system.cpu0.itb.inst_accesses                       0                       # ITB inst accesses
system.cpu0.itb.hits                                0                       # DTB hits
system.cpu0.itb.misses                              0                       # DTB misses
system.cpu0.itb.accesses                            0                       # DTB accesses
system.cpu0.workload.num_syscalls                 199                       # Number of system calls
system.cpu0.numCycles                           84207                       # number of cpu cycles simulated
system.cpu0.numWorkItemsStarted                     0                       # number of work items this cpu started
system.cpu0.numWorkItemsCompleted                   0                       # number of work items this cpu completed
system.cpu0.fetch.icacheStallCycles             19815                       # Number of cycles fetch is stalled on an Icache miss
system.cpu0.fetch.Insts                         61753                       # Number of instructions fetch has processed
system.cpu0.fetch.Branches                      10699                       # Number of branches that fetch encountered
system.cpu0.fetch.predictedBranches              5505                       # Number of branches that fetch has predicted taken
system.cpu0.fetch.Cycles                        28544                       # Number of cycles fetch has run and was not squashing or blocked
system.cpu0.fetch.SquashCycles                   2155                       # Number of cycles fetch has spent squashing
system.cpu0.fetch.MiscStallCycles                   1                       # Number of cycles fetch has spent waiting on interrupts, or bad addresses, or out of MSHRs
system.cpu0.fetch.PendingTrapStallCycles            1                       # Number of stall cycles due to pending traps
system.cpu0.fetch.CacheLines                     7005                       # Number of cache lines fetched
system.cpu0.fetch.IcacheSquashes                  652                       # Number of outstanding Icache misses that were squashed
system.cpu0.fetch.rateDist::samples             49438                       # Number of instructions fetched each cycle (Total)
system.cpu0.fetch.rateDist::mean             1.433715                       # Number of instructions fetched each cycle (Total)
system.cpu0.fetch.rateDist::stdev            2.814534                       # Number of instructions fetched each cycle (Total)
system.cpu0.fetch.rateDist::underflows              0      0.00%      0.00% # Number of instructions fetched each cycle (Total)
system.cpu0.fetch.rateDist::0                   37493     75.84%     75.84% # Number of instructions fetched each cycle (Total)
system.cpu0.fetch.rateDist::1                     821      1.66%     77.50% # Number of instructions fetched each cycle (Total)
system.cpu0.fetch.rateDist::2                    1168      2.36%     79.86% # Number of instructions fetched each cycle (Total)
system.cpu0.fetch.rateDist::3                     685      1.39%     81.25% # Number of instructions fetched each cycle (Total)
system.cpu0.fetch.rateDist::4                     885      1.79%     83.04% # Number of instructions fetched each cycle (Total)
system.cpu0.fetch.rateDist::5                     541      1.09%     84.13% # Number of instructions fetched each cycle (Total)
system.cpu0.fetch.rateDist::6                     937      1.90%     86.03% # Number of instructions fetched each cycle (Total)
system.cpu0.fetch.rateDist::7                    1463      2.96%     88.99% # Number of instructions fetched each cycle (Total)
system.cpu0.fetch.rateDist::8                    5445     11.01%    100.00% # Number of instructions fetched each cycle (Total)
system.cpu0.fetch.rateDist::overflows               0      0.00%    100.00% # Number of instructions fetched each cycle (Total)
system.cpu0.fetch.rateDist::min_value               0                       # Number of instructions fetched each cycle (Total)
system.cpu0.fetch.rateDist::max_value               8                       # Number of instructions fetched each cycle (Total)
system.cpu0.fetch.rateDist::total               49438                       # Number of instructions fetched each cycle (Total)
system.cpu0.fetch.branchRate                 0.127056                       # Number of branch fetches per cycle
system.cpu0.fetch.rate                       0.733348                       # Number of inst fetches per cycle
system.cpu0.decode.IdleCycles                   16480                       # Number of cycles decode is idle
system.cpu0.decode.BlockedCycles                22081                       # Number of cycles decode is blocked
system.cpu0.decode.RunCycles                     8558                       # Number of cycles decode is running
system.cpu0.decode.UnblockCycles                 1547                       # Number of cycles decode is unblocking
system.cpu0.decode.SquashCycles                   772                       # Number of cycles decode is squashing
system.cpu0.decode.BranchResolved                 944                       # Number of times decode resolved a branch
system.cpu0.decode.BranchMispred                  314                       # Number of times decode detected a branch misprediction
system.cpu0.decode.DecodedInsts                 63052                       # Number of instructions handled by decode
system.cpu0.decode.SquashedInsts                 1158                       # Number of squashed instructions handled by decode
system.cpu0.rename.SquashCycles                   772                       # Number of cycles rename is squashing
system.cpu0.rename.IdleCycles                   17331                       # Number of cycles rename is idle
system.cpu0.rename.BlockCycles                   2581                       # Number of cycles rename is blocking
system.cpu0.rename.serializeStallCycles          9222                       # count of cycles rename stalled for serializing inst
system.cpu0.rename.RunCycles                     9205                       # Number of cycles rename is running
system.cpu0.rename.UnblockCycles                10327                       # Number of cycles rename is unblocking
system.cpu0.rename.RenamedInsts                 60965                       # Number of instructions processed by rename
system.cpu0.rename.ROBFullEvents                   90                       # Number of times rename has blocked due to ROB full
system.cpu0.rename.IQFullEvents                   668                       # Number of times rename has blocked due to IQ full
system.cpu0.rename.LQFullEvents                   205                       # Number of times rename has blocked due to LQ full
system.cpu0.rename.SQFullEvents                  9098                       # Number of times rename has blocked due to SQ full
system.cpu0.rename.RenamedOperands              71939                       # Number of destination operands rename has renamed
system.cpu0.rename.RenameLookups               291295                       # Number of register rename lookups that rename has made
system.cpu0.rename.int_rename_lookups           81289                       # Number of integer rename lookups
system.cpu0.rename.fp_rename_lookups               22                       # Number of floating rename lookups
system.cpu0.rename.CommittedMaps                51458                       # Number of HB maps that are committed
system.cpu0.rename.UndoneMaps                   20481                       # Number of HB maps that are undone due to squashing
system.cpu0.rename.serializingInsts               141                       # count of serializing insts renamed
system.cpu0.rename.tempSerializingInsts           139                       # count of temporary serializing insts renamed
system.cpu0.rename.skidInsts                     5487                       # count of insts added to the skid buffer
system.cpu0.memDep0.insertedLoads                9141                       # Number of loads inserted to the mem dependence unit.
system.cpu0.memDep0.insertedStores               8325                       # Number of stores inserted to the mem dependence unit.
system.cpu0.memDep0.conflictingLoads              630                       # Number of conflicting loads.
system.cpu0.memDep0.conflictingStores             561                       # Number of conflicting stores.
system.cpu0.iq.iqInstsAdded                     57481                       # Number of instructions added to the IQ (excludes non-spec)
system.cpu0.iq.iqNonSpecInstsAdded                285                       # Number of non-speculative instructions added to the IQ
system.cpu0.iq.iqInstsIssued                    49838                       # Number of instructions issued
system.cpu0.iq.iqSquashedInstsIssued              567                       # Number of squashed instructions issued
system.cpu0.iq.iqSquashedInstsExamined          14834                       # Number of squashed instructions iterated over during squash; mainly for profiling
system.cpu0.iq.iqSquashedOperandsExamined        43832                       # Number of squashed operands that are examined and possibly removed from graph
system.cpu0.iq.iqSquashedNonSpecRemoved            77                       # Number of squashed non-spec instructions that were removed
system.cpu0.iq.issued_per_cycle::samples        49438                       # Number of insts issued each cycle
system.cpu0.iq.issued_per_cycle::mean        1.008091                       # Number of insts issued each cycle
system.cpu0.iq.issued_per_cycle::stdev       1.568631                       # Number of insts issued each cycle
system.cpu0.iq.issued_per_cycle::underflows            0      0.00%      0.00% # Number of insts issued each cycle
system.cpu0.iq.issued_per_cycle::0              32471     65.68%     65.68% # Number of insts issued each cycle
system.cpu0.iq.issued_per_cycle::1               3672      7.43%     73.11% # Number of insts issued each cycle
system.cpu0.iq.issued_per_cycle::2               2296      4.64%     77.75% # Number of insts issued each cycle
system.cpu0.iq.issued_per_cycle::3               2422      4.90%     82.65% # Number of insts issued each cycle
system.cpu0.iq.issued_per_cycle::4               8577     17.35%    100.00% # Number of insts issued each cycle
system.cpu0.iq.issued_per_cycle::overflows            0      0.00%    100.00% # Number of insts issued each cycle
system.cpu0.iq.issued_per_cycle::min_value            0                       # Number of insts issued each cycle
system.cpu0.iq.issued_per_cycle::max_value            4                       # Number of insts issued each cycle
system.cpu0.iq.issued_per_cycle::total          49438                       # Number of insts issued each cycle
system.cpu0.iq.fu_full::No_OpClass                  0      0.00%      0.00% # attempts to use FU when none available
system.cpu0.iq.fu_full::IntAlu                      0      0.00%      0.00% # attempts to use FU when none available
system.cpu0.iq.fu_full::IntMult                     3    100.00%    100.00% # attempts to use FU when none available
system.cpu0.iq.fu_full::IntDiv                      0      0.00%    100.00% # attempts to use FU when none available
system.cpu0.iq.fu_full::FloatAdd                    0      0.00%    100.00% # attempts to use FU when none available
system.cpu0.iq.fu_full::FloatCmp                    0      0.00%    100.00% # attempts to use FU when none available
system.cpu0.iq.fu_full::FloatCvt                    0      0.00%    100.00% # attempts to use FU when none available
system.cpu0.iq.fu_full::FloatMult                   0      0.00%    100.00% # attempts to use FU when none available
system.cpu0.iq.fu_full::FloatDiv                    0      0.00%    100.00% # attempts to use FU when none available
system.cpu0.iq.fu_full::FloatSqrt                   0      0.00%    100.00% # attempts to use FU when none available
system.cpu0.iq.fu_full::SimdAdd                     0      0.00%    100.00% # attempts to use FU when none available
system.cpu0.iq.fu_full::SimdAddAcc                  0      0.00%    100.00% # attempts to use FU when none available
system.cpu0.iq.fu_full::SimdAlu                     0      0.00%    100.00% # attempts to use FU when none available
system.cpu0.iq.fu_full::SimdCmp                     0      0.00%    100.00% # attempts to use FU when none available
system.cpu0.iq.fu_full::SimdCvt                     0      0.00%    100.00% # attempts to use FU when none available
system.cpu0.iq.fu_full::SimdMisc                    0      0.00%    100.00% # attempts to use FU when none available
system.cpu0.iq.fu_full::SimdMult                    0      0.00%    100.00% # attempts to use FU when none available
system.cpu0.iq.fu_full::SimdMultAcc                 0      0.00%    100.00% # attempts to use FU when none available
system.cpu0.iq.fu_full::SimdShift                   0      0.00%    100.00% # attempts to use FU when none available
system.cpu0.iq.fu_full::SimdShiftAcc                0      0.00%    100.00% # attempts to use FU when none available
system.cpu0.iq.fu_full::SimdSqrt                    0      0.00%    100.00% # attempts to use FU when none available
system.cpu0.iq.fu_full::SimdFloatAdd                0      0.00%    100.00% # attempts to use FU when none available
system.cpu0.iq.fu_full::SimdFloatAlu                0      0.00%    100.00% # attempts to use FU when none available
system.cpu0.iq.fu_full::SimdFloatCmp                0      0.00%    100.00% # attempts to use FU when none available
system.cpu0.iq.fu_full::SimdFloatCvt                0      0.00%    100.00% # attempts to use FU when none available
system.cpu0.iq.fu_full::SimdFloatDiv                0      0.00%    100.00% # attempts to use FU when none available
system.cpu0.iq.fu_full::SimdFloatMisc               0      0.00%    100.00% # attempts to use FU when none available
system.cpu0.iq.fu_full::SimdFloatMult               0      0.00%    100.00% # attempts to use FU when none available
system.cpu0.iq.fu_full::SimdFloatMultAcc            0      0.00%    100.00% # attempts to use FU when none available
system.cpu0.iq.fu_full::SimdFloatSqrt               0      0.00%    100.00% # attempts to use FU when none available
system.cpu0.iq.fu_full::MemRead                     0      0.00%    100.00% # attempts to use FU when none available
system.cpu0.iq.fu_full::MemWrite                    0      0.00%    100.00% # attempts to use FU when none available
system.cpu0.iq.fu_full::IprAccess                   0      0.00%    100.00% # attempts to use FU when none available
system.cpu0.iq.fu_full::InstPrefetch                0      0.00%    100.00% # attempts to use FU when none available
system.cpu0.iq.FU_type_0::No_OpClass                0      0.00%      0.00% # Type of FU issued
system.cpu0.iq.FU_type_0::IntAlu                32095     64.40%     64.40% # Type of FU issued
system.cpu0.iq.FU_type_0::IntMult                2132      4.28%     68.68% # Type of FU issued
system.cpu0.iq.FU_type_0::IntDiv                    0      0.00%     68.68% # Type of FU issued
system.cpu0.iq.FU_type_0::FloatAdd                  0      0.00%     68.68% # Type of FU issued
system.cpu0.iq.FU_type_0::FloatCmp                  0      0.00%     68.68% # Type of FU issued
system.cpu0.iq.FU_type_0::FloatCvt                  0      0.00%     68.68% # Type of FU issued
system.cpu0.iq.FU_type_0::FloatMult                 0      0.00%     68.68% # Type of FU issued
system.cpu0.iq.FU_type_0::FloatDiv                  0      0.00%     68.68% # Type of FU issued
system.cpu0.iq.FU_type_0::FloatSqrt                 0      0.00%     68.68% # Type of FU issued
system.cpu0.iq.FU_type_0::SimdAdd                   0      0.00%     68.68% # Type of FU issued
system.cpu0.iq.FU_type_0::SimdAddAcc                0      0.00%     68.68% # Type of FU issued
system.cpu0.iq.FU_type_0::SimdAlu                   0      0.00%     68.68% # Type of FU issued
system.cpu0.iq.FU_type_0::SimdCmp                   0      0.00%     68.68% # Type of FU issued
system.cpu0.iq.FU_type_0::SimdCvt                   0      0.00%     68.68% # Type of FU issued
system.cpu0.iq.FU_type_0::SimdMisc                  0      0.00%     68.68% # Type of FU issued
system.cpu0.iq.FU_type_0::SimdMult                  0      0.00%     68.68% # Type of FU issued
system.cpu0.iq.FU_type_0::SimdMultAcc               0      0.00%     68.68% # Type of FU issued
system.cpu0.iq.FU_type_0::SimdShift                 0      0.00%     68.68% # Type of FU issued
system.cpu0.iq.FU_type_0::SimdShiftAcc              0      0.00%     68.68% # Type of FU issued
system.cpu0.iq.FU_type_0::SimdSqrt                  0      0.00%     68.68% # Type of FU issued
system.cpu0.iq.FU_type_0::SimdFloatAdd              0      0.00%     68.68% # Type of FU issued
system.cpu0.iq.FU_type_0::SimdFloatAlu              0      0.00%     68.68% # Type of FU issued
system.cpu0.iq.FU_type_0::SimdFloatCmp              0      0.00%     68.68% # Type of FU issued
system.cpu0.iq.FU_type_0::SimdFloatCvt              0      0.00%     68.68% # Type of FU issued
system.cpu0.iq.FU_type_0::SimdFloatDiv              0      0.00%     68.68% # Type of FU issued
system.cpu0.iq.FU_type_0::SimdFloatMisc             3      0.01%     68.68% # Type of FU issued
system.cpu0.iq.FU_type_0::SimdFloatMult             0      0.00%     68.68% # Type of FU issued
system.cpu0.iq.FU_type_0::SimdFloatMultAcc            0      0.00%     68.68% # Type of FU issued
system.cpu0.iq.FU_type_0::SimdFloatSqrt             0      0.00%     68.68% # Type of FU issued
system.cpu0.iq.FU_type_0::MemRead                8316     16.69%     85.37% # Type of FU issued
system.cpu0.iq.FU_type_0::MemWrite               7292     14.63%    100.00% # Type of FU issued
system.cpu0.iq.FU_type_0::IprAccess                 0      0.00%    100.00% # Type of FU issued
system.cpu0.iq.FU_type_0::InstPrefetch              0      0.00%    100.00% # Type of FU issued
system.cpu0.iq.FU_type_0::total                 49838                       # Type of FU issued
system.cpu0.iq.rate                          0.591851                       # Inst issue rate
system.cpu0.iq.fu_busy_cnt                          3                       # FU busy when requested
system.cpu0.iq.fu_busy_rate                  0.000060                       # FU busy rate (busy events/executed inst)
system.cpu0.iq.int_inst_queue_reads            149628                       # Number of integer instruction queue reads
system.cpu0.iq.int_inst_queue_writes            72626                       # Number of integer instruction queue writes
system.cpu0.iq.int_inst_queue_wakeup_accesses        47917                       # Number of integer instruction queue wakeup accesses
system.cpu0.iq.fp_inst_queue_reads                 56                       # Number of floating instruction queue reads
system.cpu0.iq.fp_inst_queue_writes                28                       # Number of floating instruction queue writes
system.cpu0.iq.fp_inst_queue_wakeup_accesses           28                       # Number of floating instruction queue wakeup accesses
system.cpu0.iq.int_alu_accesses                 49813                       # Number of integer alu accesses
system.cpu0.iq.fp_alu_accesses                     28                       # Number of floating point alu accesses
system.cpu0.iew.lsq.thread0.forwLoads             111                       # Number of loads that had data forwarded from stores
system.cpu0.iew.lsq.thread0.invAddrLoads            0                       # Number of loads ignored due to an invalid address
system.cpu0.iew.lsq.thread0.squashedLoads         3018                       # Number of loads squashed
system.cpu0.iew.lsq.thread0.ignoredResponses            3                       # Number of memory responses ignored because the instruction is squashed
system.cpu0.iew.lsq.thread0.memOrderViolation           56                       # Number of memory ordering violations
system.cpu0.iew.lsq.thread0.squashedStores         1586                       # Number of stores squashed
system.cpu0.iew.lsq.thread0.invAddrSwpfs            0                       # Number of software prefetches ignored due to an invalid address
system.cpu0.iew.lsq.thread0.blockedLoads            0                       # Number of blocked loads due to partial load-store forwarding
system.cpu0.iew.lsq.thread0.rescheduledLoads          103                       # Number of loads that were rescheduled
system.cpu0.iew.lsq.thread0.cacheBlocked           51                       # Number of times an access to memory failed due to the cache being blocked
system.cpu0.iew.iewIdleCycles                       0                       # Number of cycles IEW is idle
system.cpu0.iew.iewSquashCycles                   772                       # Number of cycles IEW is squashing
system.cpu0.iew.iewBlockCycles                   1992                       # Number of cycles IEW is blocking
system.cpu0.iew.iewUnblockCycles                  507                       # Number of cycles IEW is unblocking
system.cpu0.iew.iewDispatchedInsts              57774                       # Number of instructions dispatched to IQ
system.cpu0.iew.iewDispSquashedInsts              221                       # Number of squashed instructions skipped by dispatch
system.cpu0.iew.iewDispLoadInsts                 9141                       # Number of dispatched load instructions
system.cpu0.iew.iewDispStoreInsts                8325                       # Number of dispatched store instructions
system.cpu0.iew.iewDispNonSpecInsts               134                       # Number of dispatched non-speculative instructions
system.cpu0.iew.iewIQFullEvents                    16                       # Number of times the IQ has become full, causing a stall
system.cpu0.iew.iewLSQFullEvents                  483                       # Number of times the LSQ has become full, causing a stall
system.cpu0.iew.memOrderViolationEvents            56                       # Number of memory order violations
system.cpu0.iew.predictedTakenIncorrect           198                       # Number of branches that were predicted taken incorrectly
system.cpu0.iew.predictedNotTakenIncorrect          557                       # Number of branches that were predicted not taken incorrectly
system.cpu0.iew.branchMispredicts                 755                       # Number of branch mispredicts detected at execute
system.cpu0.iew.iewExecutedInsts                48943                       # Number of executed instructions
system.cpu0.iew.iewExecLoadInsts                 7917                       # Number of load instructions executed
system.cpu0.iew.iewExecSquashedInsts              895                       # Number of squashed instructions skipped in execute
system.cpu0.iew.exec_swp                            0                       # number of swp insts executed
system.cpu0.iew.exec_nop                            8                       # number of nop insts executed
system.cpu0.iew.exec_refs                       15037                       # number of memory reference insts executed
system.cpu0.iew.exec_branches                    6813                       # Number of branches executed
system.cpu0.iew.exec_stores                      7120                       # Number of stores executed
system.cpu0.iew.exec_rate                    0.581222                       # Inst execution rate
system.cpu0.iew.wb_sent                         48246                       # cumulative count of insts sent to commit
system.cpu0.iew.wb_count                        47945                       # cumulative count of insts written-back
system.cpu0.iew.wb_producers                    28862                       # num instructions producing a value
system.cpu0.iew.wb_consumers                    61438                       # num instructions consuming a value
system.cpu0.iew.wb_penalized                        0                       # number of instrctions required to write to 'other' IQ
system.cpu0.iew.wb_rate                      0.569371                       # insts written-back per cycle
system.cpu0.iew.wb_fanout                    0.469774                       # average fanout of values written-back
system.cpu0.iew.wb_penalized_rate                   0                       # fraction of instructions written-back that wrote to 'other' IQ
system.cpu0.commit.commitSquashedInsts          14845                       # The number of squashed insts skipped by commit
system.cpu0.commit.commitNonSpecStalls            208                       # The number of times commit has been forced to stall to communicate backwards
system.cpu0.commit.branchMispredicts              702                       # The number of times a branch was mispredicted
system.cpu0.commit.committed_per_cycle::samples        47140                       # Number of insts commited each cycle
system.cpu0.commit.committed_per_cycle::mean     0.910734                       # Number of insts commited each cycle
system.cpu0.commit.committed_per_cycle::stdev     1.907669                       # Number of insts commited each cycle
system.cpu0.commit.committed_per_cycle::underflows            0      0.00%      0.00% # Number of insts commited each cycle
system.cpu0.commit.committed_per_cycle::0        33835     71.78%     71.78% # Number of insts commited each cycle
system.cpu0.commit.committed_per_cycle::1         4594      9.75%     81.52% # Number of insts commited each cycle
system.cpu0.commit.committed_per_cycle::2         2198      4.66%     86.18% # Number of insts commited each cycle
system.cpu0.commit.committed_per_cycle::3         1092      2.32%     88.50% # Number of insts commited each cycle
[...]
system.cpu7.icache.overall_miss_latency::cpu7.inst      5647250                       # number of overall miss cycles
system.cpu7.icache.overall_miss_latency::total      5647250                       # number of overall miss cycles
system.cpu7.icache.ReadReq_accesses::cpu7.inst         1853                       # number of ReadReq accesses(hits+misses)
system.cpu7.icache.ReadReq_accesses::total         1853                       # number of ReadReq accesses(hits+misses)
system.cpu7.icache.demand_accesses::cpu7.inst         1853                       # number of demand (read+write) accesses
system.cpu7.icache.demand_accesses::total         1853                       # number of demand (read+write) accesses
system.cpu7.icache.overall_accesses::cpu7.inst         1853                       # number of overall (read+write) accesses
system.cpu7.icache.overall_accesses::total         1853                       # number of overall (read+write) accesses
system.cpu7.icache.ReadReq_miss_rate::cpu7.inst     0.037237                       # miss rate for ReadReq accesses
system.cpu7.icache.ReadReq_miss_rate::total     0.037237                       # miss rate for ReadReq accesses
system.cpu7.icache.demand_miss_rate::cpu7.inst     0.037237                       # miss rate for demand accesses
system.cpu7.icache.demand_miss_rate::total     0.037237                       # miss rate for demand accesses
system.cpu7.icache.overall_miss_rate::cpu7.inst     0.037237                       # miss rate for overall accesses
system.cpu7.icache.overall_miss_rate::total     0.037237                       # miss rate for overall accesses
system.cpu7.icache.ReadReq_avg_miss_latency::cpu7.inst 81844.202899                       # average ReadReq miss latency
system.cpu7.icache.ReadReq_avg_miss_latency::total 81844.202899                       # average ReadReq miss latency
system.cpu7.icache.demand_avg_miss_latency::cpu7.inst 81844.202899                       # average overall miss latency
system.cpu7.icache.demand_avg_miss_latency::total 81844.202899                       # average overall miss latency
system.cpu7.icache.overall_avg_miss_latency::cpu7.inst 81844.202899                       # average overall miss latency
system.cpu7.icache.overall_avg_miss_latency::total 81844.202899                       # average overall miss latency
system.cpu7.icache.blocked_cycles::no_mshrs          117                       # number of cycles access was blocked
system.cpu7.icache.blocked_cycles::no_targets            0                       # number of cycles access was blocked
system.cpu7.icache.blocked::no_mshrs                1                       # number of cycles access was blocked
system.cpu7.icache.blocked::no_targets              0                       # number of cycles access was blocked
system.cpu7.icache.avg_blocked_cycles::no_mshrs          117                       # average number of cycles each access was blocked
system.cpu7.icache.avg_blocked_cycles::no_targets          nan                       # average number of cycles each access was blocked
system.cpu7.icache.fast_writes                      0                       # number of fast writes performed
system.cpu7.icache.cache_copies                     0                       # number of cache copies performed
system.cpu7.icache.ReadReq_mshr_hits::cpu7.inst           19                       # number of ReadReq MSHR hits
system.cpu7.icache.ReadReq_mshr_hits::total           19                       # number of ReadReq MSHR hits
system.cpu7.icache.demand_mshr_hits::cpu7.inst           19                       # number of demand (read+write) MSHR hits
system.cpu7.icache.demand_mshr_hits::total           19                       # number of demand (read+write) MSHR hits
system.cpu7.icache.overall_mshr_hits::cpu7.inst           19                       # number of overall MSHR hits
system.cpu7.icache.overall_mshr_hits::total           19                       # number of overall MSHR hits
system.cpu7.icache.ReadReq_mshr_misses::cpu7.inst           50                       # number of ReadReq MSHR misses
system.cpu7.icache.ReadReq_mshr_misses::total           50                       # number of ReadReq MSHR misses
system.cpu7.icache.demand_mshr_misses::cpu7.inst           50                       # number of demand (read+write) MSHR misses
system.cpu7.icache.demand_mshr_misses::total           50                       # number of demand (read+write) MSHR misses
system.cpu7.icache.overall_mshr_misses::cpu7.inst           50                       # number of overall MSHR misses
system.cpu7.icache.overall_mshr_misses::total           50                       # number of overall MSHR misses
system.cpu7.icache.ReadReq_mshr_miss_latency::cpu7.inst      4194250                       # number of ReadReq MSHR miss cycles
system.cpu7.icache.ReadReq_mshr_miss_latency::total      4194250                       # number of ReadReq MSHR miss cycles
system.cpu7.icache.demand_mshr_miss_latency::cpu7.inst      4194250                       # number of demand (read+write) MSHR miss cycles
system.cpu7.icache.demand_mshr_miss_latency::total      4194250                       # number of demand (read+write) MSHR miss cycles
system.cpu7.icache.overall_mshr_miss_latency::cpu7.inst      4194250                       # number of overall MSHR miss cycles
system.cpu7.icache.overall_mshr_miss_latency::total      4194250                       # number of overall MSHR miss cycles
system.cpu7.icache.ReadReq_mshr_miss_rate::cpu7.inst     0.026983                       # mshr miss rate for ReadReq accesses
system.cpu7.icache.ReadReq_mshr_miss_rate::total     0.026983                       # mshr miss rate for ReadReq accesses
system.cpu7.icache.demand_mshr_miss_rate::cpu7.inst     0.026983                       # mshr miss rate for demand accesses
system.cpu7.icache.demand_mshr_miss_rate::total     0.026983                       # mshr miss rate for demand accesses
system.cpu7.icache.overall_mshr_miss_rate::cpu7.inst     0.026983                       # mshr miss rate for overall accesses
system.cpu7.icache.overall_mshr_miss_rate::total     0.026983                       # mshr miss rate for overall accesses
system.cpu7.icache.ReadReq_avg_mshr_miss_latency::cpu7.inst        83885                       # average ReadReq mshr miss latency
system.cpu7.icache.ReadReq_avg_mshr_miss_latency::total        83885                       # average ReadReq mshr miss latency
system.cpu7.icache.demand_avg_mshr_miss_latency::cpu7.inst        83885                       # average overall mshr miss latency
system.cpu7.icache.demand_avg_mshr_miss_latency::total        83885                       # average overall mshr miss latency
system.cpu7.icache.overall_avg_mshr_miss_latency::cpu7.inst        83885                       # average overall mshr miss latency
system.cpu7.icache.overall_avg_mshr_miss_latency::total        83885                       # average overall mshr miss latency
system.cpu7.icache.no_allocate_misses               0                       # Number of misses that were no-allocate
system.membus.trans_dist::ReadReq                1662                       # Transaction distribution
system.membus.trans_dist::ReadResp               1661                       # Transaction distribution
system.membus.trans_dist::Writeback                17                       # Transaction distribution
system.membus.trans_dist::UpgradeReq               31                       # Transaction distribution
system.membus.trans_dist::SCUpgradeReq             24                       # Transaction distribution
system.membus.trans_dist::UpgradeResp              55                       # Transaction distribution
system.membus.trans_dist::SCUpgradeFailReq            4                       # Transaction distribution
system.membus.trans_dist::UpgradeFailResp            4                       # Transaction distribution
system.membus.trans_dist::ReadExReq               329                       # Transaction distribution
system.membus.trans_dist::ReadExResp              329                       # Transaction distribution
system.membus.pkt_count_system.cpu0.icache.mem_side::system.mem_ctrls.port         1203                       # Packet count per connected master and slave (bytes)
system.membus.pkt_count_system.cpu0.dcache.mem_side::system.mem_ctrls.port          901                       # Packet count per connected master and slave (bytes)
system.membus.pkt_count_system.cpu1.icache.mem_side::system.mem_ctrls.port          104                       # Packet count per connected master and slave (bytes)
system.membus.pkt_count_system.cpu1.dcache.mem_side::system.mem_ctrls.port          117                       # Packet count per connected master and slave (bytes)
system.membus.pkt_count_system.cpu2.icache.mem_side::system.mem_ctrls.port          106                       # Packet count per connected master and slave (bytes)
system.membus.pkt_count_system.cpu2.dcache.mem_side::system.mem_ctrls.port          114                       # Packet count per connected master and slave (bytes)
system.membus.pkt_count_system.cpu3.icache.mem_side::system.mem_ctrls.port          108                       # Packet count per connected master and slave (bytes)
system.membus.pkt_count_system.cpu3.dcache.mem_side::system.mem_ctrls.port          107                       # Packet count per connected master and slave (bytes)
system.membus.pkt_count_system.cpu4.icache.mem_side::system.mem_ctrls.port           98                       # Packet count per connected master and slave (bytes)
system.membus.pkt_count_system.cpu4.dcache.mem_side::system.mem_ctrls.port          109                       # Packet count per connected master and slave (bytes)
system.membus.pkt_count_system.cpu5.icache.mem_side::system.mem_ctrls.port          108                       # Packet count per connected master and slave (bytes)
system.membus.pkt_count_system.cpu5.dcache.mem_side::system.mem_ctrls.port          108                       # Packet count per connected master and slave (bytes)
system.membus.pkt_count_system.cpu6.icache.mem_side::system.mem_ctrls.port          104                       # Packet count per connected master and slave (bytes)
system.membus.pkt_count_system.cpu6.dcache.mem_side::system.mem_ctrls.port          103                       # Packet count per connected master and slave (bytes)
system.membus.pkt_count_system.cpu7.icache.mem_side::system.mem_ctrls.port          100                       # Packet count per connected master and slave (bytes)
system.membus.pkt_count_system.cpu7.dcache.mem_side::system.mem_ctrls.port          106                       # Packet count per connected master and slave (bytes)
system.membus.pkt_count::total                   3596                       # Packet count per connected master and slave (bytes)
system.membus.pkt_size_system.cpu0.icache.mem_side::system.mem_ctrls.port        38464                       # Cumulative packet size per connected master and slave (bytes)
system.membus.pkt_size_system.cpu0.dcache.mem_side::system.mem_ctrls.port        27648                       # Cumulative packet size per connected master and slave (bytes)
system.membus.pkt_size_system.cpu1.icache.mem_side::system.mem_ctrls.port         3328                       # Cumulative packet size per connected master and slave (bytes)
system.membus.pkt_size_system.cpu1.dcache.mem_side::system.mem_ctrls.port         1088                       # Cumulative packet size per connected master and slave (bytes)
system.membus.pkt_size_system.cpu2.icache.mem_side::system.mem_ctrls.port         3392                       # Cumulative packet size per connected master and slave (bytes)
system.membus.pkt_size_system.cpu2.dcache.mem_side::system.mem_ctrls.port         1216                       # Cumulative packet size per connected master and slave (bytes)
system.membus.pkt_size_system.cpu3.icache.mem_side::system.mem_ctrls.port         3456                       # Cumulative packet size per connected master and slave (bytes)
system.membus.pkt_size_system.cpu3.dcache.mem_side::system.mem_ctrls.port         1152                       # Cumulative packet size per connected master and slave (bytes)
system.membus.pkt_size_system.cpu4.icache.mem_side::system.mem_ctrls.port         3136                       # Cumulative packet size per connected master and slave (bytes)
system.membus.pkt_size_system.cpu4.dcache.mem_side::system.mem_ctrls.port         1152                       # Cumulative packet size per connected master and slave (bytes)
system.membus.pkt_size_system.cpu5.icache.mem_side::system.mem_ctrls.port         3456                       # Cumulative packet size per connected master and slave (bytes)
system.membus.pkt_size_system.cpu5.dcache.mem_side::system.mem_ctrls.port         1152                       # Cumulative packet size per connected master and slave (bytes)
system.membus.pkt_size_system.cpu6.icache.mem_side::system.mem_ctrls.port         3328                       # Cumulative packet size per connected master and slave (bytes)
system.membus.pkt_size_system.cpu6.dcache.mem_side::system.mem_ctrls.port         1088                       # Cumulative packet size per connected master and slave (bytes)
system.membus.pkt_size_system.cpu7.icache.mem_side::system.mem_ctrls.port         3200                       # Cumulative packet size per connected master and slave (bytes)
system.membus.pkt_size_system.cpu7.dcache.mem_side::system.mem_ctrls.port         1152                       # Cumulative packet size per connected master and slave (bytes)
system.membus.pkt_size::total                   97408                       # Cumulative packet size per connected master and slave (bytes)
system.membus.snoops                              520                       # Total snoops (count)
system.membus.snoop_fanout::samples              2067                       # Request fanout histogram
system.membus.snoop_fanout::mean                   15                       # Request fanout histogram
system.membus.snoop_fanout::stdev                   0                       # Request fanout histogram
system.membus.snoop_fanout::underflows              0      0.00%      0.00% # Request fanout histogram
system.membus.snoop_fanout::0                       0      0.00%      0.00% # Request fanout histogram
system.membus.snoop_fanout::1                       0      0.00%      0.00% # Request fanout histogram
system.membus.snoop_fanout::2                       0      0.00%      0.00% # Request fanout histogram
system.membus.snoop_fanout::3                       0      0.00%      0.00% # Request fanout histogram
system.membus.snoop_fanout::4                       0      0.00%      0.00% # Request fanout histogram
system.membus.snoop_fanout::5                       0      0.00%      0.00% # Request fanout histogram
system.membus.snoop_fanout::6                       0      0.00%      0.00% # Request fanout histogram
system.membus.snoop_fanout::7                       0      0.00%      0.00% # Request fanout histogram
system.membus.snoop_fanout::8                       0      0.00%      0.00% # Request fanout histogram
system.membus.snoop_fanout::9                       0      0.00%      0.00% # Request fanout histogram
system.membus.snoop_fanout::10                      0      0.00%      0.00% # Request fanout histogram
system.membus.snoop_fanout::11                      0      0.00%      0.00% # Request fanout histogram
system.membus.snoop_fanout::12                      0      0.00%      0.00% # Request fanout histogram
system.membus.snoop_fanout::13                      0      0.00%      0.00% # Request fanout histogram
system.membus.snoop_fanout::14                      0      0.00%      0.00% # Request fanout histogram
system.membus.snoop_fanout::15                   2067    100.00%    100.00% # Request fanout histogram
system.membus.snoop_fanout::16                      0      0.00%    100.00% # Request fanout histogram
system.membus.snoop_fanout::overflows               0      0.00%    100.00% # Request fanout histogram
system.membus.snoop_fanout::min_value              15                       # Request fanout histogram
system.membus.snoop_fanout::max_value              15                       # Request fanout histogram
system.membus.snoop_fanout::total                2067                       # Request fanout histogram
system.membus.reqLayer0.occupancy             2538497                       # Layer occupancy (ticks)
system.membus.reqLayer0.utilization               6.0                       # Layer utilization (%)
system.membus.respLayer1.occupancy            3196000                       # Layer occupancy (ticks)
system.membus.respLayer1.utilization              7.6                       # Layer utilization (%)
system.membus.respLayer2.occupancy            2294728                       # Layer occupancy (ticks)
system.membus.respLayer2.utilization              5.5                       # Layer utilization (%)
system.membus.respLayer5.occupancy             280498                       # Layer occupancy (ticks)
system.membus.respLayer5.utilization              0.7                       # Layer utilization (%)
system.membus.respLayer6.occupancy             506976                       # Layer occupancy (ticks)
system.membus.respLayer6.utilization              1.2                       # Layer utilization (%)
system.membus.respLayer9.occupancy             285500                       # Layer occupancy (ticks)
system.membus.respLayer9.utilization              0.7                       # Layer utilization (%)
system.membus.respLayer10.occupancy            484215                       # Layer occupancy (ticks)
system.membus.respLayer10.utilization             1.2                       # Layer utilization (%)
system.membus.respLayer13.occupancy            288250                       # Layer occupancy (ticks)
system.membus.respLayer13.utilization             0.7                       # Layer utilization (%)
system.membus.respLayer14.occupancy            451975                       # Layer occupancy (ticks)
system.membus.respLayer14.utilization             1.1                       # Layer utilization (%)
system.membus.respLayer17.occupancy            261500                       # Layer occupancy (ticks)
system.membus.respLayer17.utilization             0.6                       # Layer utilization (%)
system.membus.respLayer18.occupancy            469707                       # Layer occupancy (ticks)
system.membus.respLayer18.utilization             1.1                       # Layer utilization (%)
system.membus.respLayer21.occupancy            291250                       # Layer occupancy (ticks)
system.membus.respLayer21.utilization             0.7                       # Layer utilization (%)
system.membus.respLayer22.occupancy            455228                       # Layer occupancy (ticks)
system.membus.respLayer22.utilization             1.1                       # Layer utilization (%)
system.membus.respLayer25.occupancy            278749                       # Layer occupancy (ticks)
system.membus.respLayer25.utilization             0.7                       # Layer utilization (%)
system.membus.respLayer26.occupancy            443221                       # Layer occupancy (ticks)
system.membus.respLayer26.utilization             1.1                       # Layer utilization (%)
system.membus.respLayer29.occupancy            265750                       # Layer occupancy (ticks)
system.membus.respLayer29.utilization             0.6                       # Layer utilization (%)
system.membus.respLayer30.occupancy            428742                       # Layer occupancy (ticks)
system.membus.respLayer30.utilization             1.0                       # Layer utilization (%)

---------- End Simulation Statistics   ----------
