
---------- Begin Simulation Statistics ----------
sim_seconds                                  0.000036                       # Number of seconds simulated
sim_ticks                                    36035500                       # Number of ticks simulated
final_tick                                   36035500                       # Number of ticks from beginning of simulation (restored from checkpoints and never reset)
sim_freq                                 1000000000000                       # Frequency of simulated ticks
host_inst_rate                                 162089                       # Simulator instruction rate (inst/s)
host_op_rate                                   173231                       # Simulator op (including micro ops) rate (op/s)
host_tick_rate                               55584403                       # Simulator tick rate (ticks/s)
host_mem_usage                                 659984                       # Number of bytes of host memory used
host_seconds                                     0.65                       # Real time elapsed on the host
sim_insts                                      105076                       # Number of instructions simulated
sim_ops                                        112303                       # Number of ops (including micro ops) simulated
system.voltage_domain.voltage                       1                       # Voltage in Volts
system.clk_domain.clock                          1000                       # Clock period in ticks
system.mem_ctrls.bytes_read::cpu0.inst          38272                       # Number of bytes read from this memory
system.mem_ctrls.bytes_read::cpu0.data          20672                       # Number of bytes read from this memory
system.mem_ctrls.bytes_read::cpu1.inst           3200                       # Number of bytes read from this memory
system.mem_ctrls.bytes_read::cpu1.data           1024                       # Number of bytes read from this memory
system.mem_ctrls.bytes_read::cpu2.inst           3712                       # Number of bytes read from this memory
system.mem_ctrls.bytes_read::cpu2.data           1088                       # Number of bytes read from this memory
system.mem_ctrls.bytes_read::cpu3.inst           3392                       # Number of bytes read from this memory
system.mem_ctrls.bytes_read::cpu3.data           1088                       # Number of bytes read from this memory
system.mem_ctrls.bytes_read::total              72448                       # Number of bytes read from this memory
system.mem_ctrls.bytes_inst_read::cpu0.inst        38272                       # Number of instructions bytes read from this memory
system.mem_ctrls.bytes_inst_read::cpu1.inst         3200                       # Number of instructions bytes read from this memory
system.mem_ctrls.bytes_inst_read::cpu2.inst         3712                       # Number of instructions bytes read from this memory
system.mem_ctrls.bytes_inst_read::cpu3.inst         3392                       # Number of instructions bytes read from this memory
system.mem_ctrls.bytes_inst_read::total         48576                       # Number of instructions bytes read from this memory
system.mem_ctrls.bytes_written::writebacks          320                       # Number of bytes written to this memory
system.mem_ctrls.bytes_written::total             320                       # Number of bytes written to this memory
system.mem_ctrls.num_reads::cpu0.inst             598                       # Number of read requests responded to by this memory
system.mem_ctrls.num_reads::cpu0.data             323                       # Number of read requests responded to by this memory
system.mem_ctrls.num_reads::cpu1.inst              50                       # Number of read requests responded to by this memory
system.mem_ctrls.num_reads::cpu1.data              16                       # Number of read requests responded to by this memory
system.mem_ctrls.num_reads::cpu2.inst              58                       # Number of read requests responded to by this memory
system.mem_ctrls.num_reads::cpu2.data              17                       # Number of read requests responded to by this memory
system.mem_ctrls.num_reads::cpu3.inst              53                       # Number of read requests responded to by this memory
system.mem_ctrls.num_reads::cpu3.data              17                       # Number of read requests responded to by this memory
system.mem_ctrls.num_reads::total                1132                       # Number of read requests responded to by this memory
system.mem_ctrls.num_writes::writebacks             5                       # Number of write requests responded to by this memory
system.mem_ctrls.num_writes::total                  5                       # Number of write requests responded to by this memory
system.mem_ctrls.bw_read::cpu0.inst        1062063798                       # Total read bandwidth from this memory (bytes/s)
system.mem_ctrls.bw_read::cpu0.data         573656533                       # Total read bandwidth from this memory (bytes/s)
system.mem_ctrls.bw_read::cpu1.inst          88801321                       # Total read bandwidth from this memory (bytes/s)
system.mem_ctrls.bw_read::cpu1.data          28416423                       # Total read bandwidth from this memory (bytes/s)
system.mem_ctrls.bw_read::cpu2.inst         103009532                       # Total read bandwidth from this memory (bytes/s)
system.mem_ctrls.bw_read::cpu2.data          30192449                       # Total read bandwidth from this memory (bytes/s)
system.mem_ctrls.bw_read::cpu3.inst          94129400                       # Total read bandwidth from this memory (bytes/s)
system.mem_ctrls.bw_read::cpu3.data          30192449                       # Total read bandwidth from this memory (bytes/s)
system.mem_ctrls.bw_read::total            2010461906                       # Total read bandwidth from this memory (bytes/s)
system.mem_ctrls.bw_inst_read::cpu0.inst   1062063798                       # Instruction read bandwidth from this memory (bytes/s)
system.mem_ctrls.bw_inst_read::cpu1.inst     88801321                       # Instruction read bandwidth from this memory (bytes/s)
system.mem_ctrls.bw_inst_read::cpu2.inst    103009532                       # Instruction read bandwidth from this memory (bytes/s)
system.mem_ctrls.bw_inst_read::cpu3.inst     94129400                       # Instruction read bandwidth from this memory (bytes/s)
system.mem_ctrls.bw_inst_read::total       1348004052                       # Instruction read bandwidth from this memory (bytes/s)
system.mem_ctrls.bw_write::writebacks         8880132                       # Write bandwidth from this memory (bytes/s)
system.mem_ctrls.bw_write::total              8880132                       # Write bandwidth from this memory (bytes/s)
system.mem_ctrls.bw_total::writebacks         8880132                       # Total bandwidth to/from this memory (bytes/s)
system.mem_ctrls.bw_total::cpu0.inst       1062063798                       # Total bandwidth to/from this memory (bytes/s)
system.mem_ctrls.bw_total::cpu0.data        573656533                       # Total bandwidth to/from this memory (bytes/s)
system.mem_ctrls.bw_total::cpu1.inst         88801321                       # Total bandwidth to/from this memory (bytes/s)
system.mem_ctrls.bw_total::cpu1.data         28416423                       # Total bandwidth to/from this memory (bytes/s)
system.mem_ctrls.bw_total::cpu2.inst        103009532                       # Total bandwidth to/from this memory (bytes/s)
system.mem_ctrls.bw_total::cpu2.data         30192449                       # Total bandwidth to/from this memory (bytes/s)
system.mem_ctrls.bw_total::cpu3.inst         94129400                       # Total bandwidth to/from this memory (bytes/s)
system.mem_ctrls.bw_total::cpu3.data         30192449                       # Total bandwidth to/from this memory (bytes/s)
system.mem_ctrls.bw_total::total           2019342038                       # Total bandwidth to/from this memory (bytes/s)
system.mem_ctrls.readReqs                        1133                       # Number of read requests accepted
system.mem_ctrls.writeReqs                          5                       # Number of write requests accepted
system.mem_ctrls.readBursts                      1133                       # Number of DRAM read bursts, including those serviced by the write queue
system.mem_ctrls.writeBursts                        5                       # Number of DRAM write bursts, including those merged in the write queue
system.mem_ctrls.bytesReadDRAM                  72192                       # Total number of bytes read from DRAM
system.mem_ctrls.bytesReadWrQ                     320                       # Total number of bytes read from write queue
system.mem_ctrls.bytesWritten                       0                       # Total number of bytes written to DRAM
system.mem_ctrls.bytesReadSys                   72512                       # Total read bytes from the system interface side
system.mem_ctrls.bytesWrittenSys                  320                       # Total written bytes from the system interface side
system.mem_ctrls.servicedByWrQ                      5                       # Number of DRAM read bursts serviced by the write queue
system.mem_ctrls.mergedWrBursts                     1                       # Number of DRAM write bursts merged with an existing one
system.mem_ctrls.neitherReadNorWriteReqs            8                       # Number of requests that are neither read nor write
system.mem_ctrls.perBankRdBursts::0               173                       # Per bank write bursts
system.mem_ctrls.perBankRdBursts::1               235                       # Per bank write bursts
system.mem_ctrls.perBankRdBursts::2               175                       # Per bank write bursts
system.mem_ctrls.perBankRdBursts::3               148                       # Per bank write bursts
system.mem_ctrls.perBankRdBursts::4                34                       # Per bank write bursts
system.mem_ctrls.perBankRdBursts::5                34                       # Per bank write bursts
system.mem_ctrls.perBankRdBursts::6               107                       # Per bank write bursts
system.mem_ctrls.perBankRdBursts::7                33                       # Per bank write bursts
system.mem_ctrls.perBankRdBursts::8                14                       # Per bank write bursts
system.mem_ctrls.perBankRdBursts::9                10                       # Per bank write bursts
system.mem_ctrls.perBankRdBursts::10                0                       # Per bank write bursts
system.mem_ctrls.perBankRdBursts::11               14                       # Per bank write bursts
system.mem_ctrls.perBankRdBursts::12                9                       # Per bank write bursts
system.mem_ctrls.perBankRdBursts::13               38                       # Per bank write bursts
system.mem_ctrls.perBankRdBursts::14               40                       # Per bank write bursts
system.mem_ctrls.perBankRdBursts::15               64                       # Per bank write bursts
system.mem_ctrls.perBankWrBursts::0                 0                       # Per bank write bursts
system.mem_ctrls.perBankWrBursts::1                 0                       # Per bank write bursts
system.mem_ctrls.perBankWrBursts::2                 0                       # Per bank write bursts
system.mem_ctrls.perBankWrBursts::3                 0                       # Per bank write bursts
system.mem_ctrls.perBankWrBursts::4                 0                       # Per bank write bursts
system.mem_ctrls.perBankWrBursts::5                 0                       # Per bank write bursts
system.mem_ctrls.perBankWrBursts::6                 0                       # Per bank write bursts
system.mem_ctrls.perBankWrBursts::7                 0                       # Per bank write bursts
system.mem_ctrls.perBankWrBursts::8                 0                       # Per bank write bursts
system.mem_ctrls.perBankWrBursts::9                 0                       # Per bank write bursts
system.mem_ctrls.perBankWrBursts::10                0                       # Per bank write bursts
system.mem_ctrls.perBankWrBursts::11                0                       # Per bank write bursts
system.mem_ctrls.perBankWrBursts::12                0                       # Per bank write bursts
system.mem_ctrls.perBankWrBursts::13                0                       # Per bank write bursts
system.mem_ctrls.perBankWrBursts::14                0                       # Per bank write bursts
system.mem_ctrls.perBankWrBursts::15                0                       # Per bank write bursts
system.mem_ctrls.numRdRetry                         0                       # Number of times read queue was full causing retry
system.mem_ctrls.numWrRetry                         0                       # Number of times write queue was full causing retry
system.mem_ctrls.totGap                      36028000                       # Total gap between requests
system.mem_ctrls.readPktSize::0                     0                       # Read request sizes (log2)
system.mem_ctrls.readPktSize::1                     0                       # Read request sizes (log2)
system.mem_ctrls.readPktSize::2                     0                       # Read request sizes (log2)
system.mem_ctrls.readPktSize::3                     0                       # Read request sizes (log2)
system.mem_ctrls.readPktSize::4                     0                       # Read request sizes (log2)
system.mem_ctrls.readPktSize::5                     0                       # Read request sizes (log2)
system.mem_ctrls.readPktSize::6                  1133                       # Read request sizes (log2)
system.mem_ctrls.writePktSize::0                    0                       # Write request sizes (log2)
system.mem_ctrls.writePktSize::1                    0                       # Write request sizes (log2)
system.mem_ctrls.writePktSize::2                    0                       # Write request sizes (log2)
system.mem_ctrls.writePktSize::3                    0                       # Write request sizes (log2)
system.mem_ctrls.writePktSize::4                    0                       # Write request sizes (log2)
system.mem_ctrls.writePktSize::5                    0                       # Write request sizes (log2)
system.mem_ctrls.writePktSize::6                    5                       # Write request sizes (log2)
system.mem_ctrls.rdQLenPdf::0                     507                       # What read queue length does an incoming req see
system.mem_ctrls.rdQLenPdf::1                     339                       # What read queue length does an incoming req see
system.mem_ctrls.rdQLenPdf::2                     135                       # What read queue length does an incoming req see
system.mem_ctrls.rdQLenPdf::3                      69                       # What read queue length does an incoming req see
system.mem_ctrls.rdQLenPdf::4                      35                       # What read queue length does an incoming req see
system.mem_ctrls.rdQLenPdf::5                      28                       # What read queue length does an incoming req see
system.mem_ctrls.rdQLenPdf::6                       7                       # What read queue length does an incoming req see
system.mem_ctrls.rdQLenPdf::7                       4                       # What read queue length does an incoming req see
system.mem_ctrls.rdQLenPdf::8                       2                       # What read queue length does an incoming req see
system.mem_ctrls.rdQLenPdf::9                       1                       # What read queue length does an incoming req see
system.mem_ctrls.rdQLenPdf::10                      1                       # What read queue length does an incoming req see
system.mem_ctrls.rdQLenPdf::11                      0                       # What read queue length does an incoming req see
system.mem_ctrls.rdQLenPdf::12                      0                       # What read queue length does an incoming req see
system.mem_ctrls.rdQLenPdf::13                      0                       # What read queue length does an incoming req see
system.mem_ctrls.rdQLenPdf::14                      0                       # What read queue length does an incoming req see
system.mem_ctrls.rdQLenPdf::15                      0                       # What read queue length does an incoming req see
system.mem_ctrls.rdQLenPdf::16                      0                       # What read queue length does an incoming req see
system.mem_ctrls.rdQLenPdf::17                      0                       # What read queue length does an incoming req see
system.mem_ctrls.rdQLenPdf::18                      0                       # What read queue length does an incoming req see
system.mem_ctrls.rdQLenPdf::19                      0                       # What read queue length does an incoming req see
system.mem_ctrls.rdQLenPdf::20                      0                       # What read queue length does an incoming req see
system.mem_ctrls.rdQLenPdf::21                      0                       # What read queue length does an incoming req see
system.mem_ctrls.rdQLenPdf::22                      0                       # What read queue length does an incoming req see
system.mem_ctrls.rdQLenPdf::23                      0                       # What read queue length does an incoming req see
system.mem_ctrls.rdQLenPdf::24                      0                       # What read queue length does an incoming req see
system.mem_ctrls.rdQLenPdf::25                      0                       # What read queue length does an incoming req see
system.mem_ctrls.rdQLenPdf::26                      0                       # What read queue length does an incoming req see
system.mem_ctrls.rdQLenPdf::27                      0                       # What read queue length does an incoming req see
system.mem_ctrls.rdQLenPdf::28                      0                       # What read queue length does an incoming req see
system.mem_ctrls.rdQLenPdf::29                      0                       # What read queue length does an incoming req see
system.mem_ctrls.rdQLenPdf::30                      0                       # What read queue length does an incoming req see
system.mem_ctrls.rdQLenPdf::31                      0                       # What read queue length does an incoming req see
system.mem_ctrls.wrQLenPdf::0                       1                       # What write queue length does an incoming req see
system.mem_ctrls.wrQLenPdf::1                       1                       # What write queue length does an incoming req see
system.mem_ctrls.wrQLenPdf::2                       1                       # What write queue length does an incoming req see
system.mem_ctrls.wrQLenPdf::3                       1                       # What write queue length does an incoming req see
system.mem_ctrls.wrQLenPdf::4                       0                       # What write queue length does an incoming req see
system.mem_ctrls.wrQLenPdf::5                       0                       # What write queue length does an incoming req see
system.mem_ctrls.wrQLenPdf::6                       0                       # What write queue length does an incoming req see
system.mem_ctrls.wrQLenPdf::7                       0                       # What write queue length does an incoming req see
system.mem_ctrls.wrQLenPdf::8                       0                       # What write queue length does an incoming req see
system.mem_ctrls.wrQLenPdf::9                       0                       # What write queue length does an incoming req see
system.mem_ctrls.wrQLenPdf::10                      0                       # What write queue length does an incoming req see
system.mem_ctrls.wrQLenPdf::11                      0                       # What write queue length does an incoming req see
system.mem_ctrls.wrQLenPdf::12                      0                       # What write queue length does an incoming req see
system.mem_ctrls.wrQLenPdf::13                      0                       # What write queue length does an incoming req see
system.mem_ctrls.wrQLenPdf::14                      0                       # What write queue length does an incoming req see
system.mem_ctrls.wrQLenPdf::15                      0                       # What write queue length does an incoming req see
system.mem_ctrls.wrQLenPdf::16                      0                       # What write queue length does an incoming req see
system.mem_ctrls.wrQLenPdf::17                      0                       # What write queue length does an incoming req see
system.mem_ctrls.wrQLenPdf::18                      0                       # What write queue length does an incoming req see
system.mem_ctrls.wrQLenPdf::19                      0                       # What write queue length does an incoming req see
system.mem_ctrls.wrQLenPdf::20                      0                       # What write queue length does an incoming req see
system.mem_ctrls.wrQLenPdf::21                      0                       # What write queue length does an incoming req see
system.mem_ctrls.wrQLenPdf::22                      0                       # What write queue length does an incoming req see
system.mem_ctrls.wrQLenPdf::23                      0                       # What write queue length does an incoming req see
system.mem_ctrls.wrQLenPdf::24                      0                       # What write queue length does an incoming req see
system.mem_ctrls.wrQLenPdf::25                      0                       # What write queue length does an incoming req see
system.mem_ctrls.wrQLenPdf::26                      0                       # What write queue length does an incoming req see
system.mem_ctrls.wrQLenPdf::27                      0                       # What write queue length does an incoming req see
system.mem_ctrls.wrQLenPdf::28                      0                       # What write queue length does an incoming req see
system.mem_ctrls.wrQLenPdf::29                      0                       # What write queue length does an incoming req see
system.mem_ctrls.wrQLenPdf::30                      0                       # What write queue length does an incoming req see
system.mem_ctrls.wrQLenPdf::31                      0                       # What write queue length does an incoming req see
system.mem_ctrls.wrQLenPdf::32                      0                       # What write queue length does an incoming req see
system.mem_ctrls.wrQLenPdf::33                      0                       # What write queue length does an incoming req see
system.mem_ctrls.wrQLenPdf::34                      0                       # What write queue length does an incoming req see
system.mem_ctrls.wrQLenPdf::35                      0                       # What write queue length does an incoming req see
system.mem_ctrls.wrQLenPdf::36                      0                       # What write queue length does an incoming req see
system.mem_ctrls.wrQLenPdf::37                      0                       # What write queue length does an incoming req see
system.mem_ctrls.wrQLenPdf::38                      0                       # What write queue length does an incoming req see
system.mem_ctrls.wrQLenPdf::39                      0                       # What write queue length does an incoming req see
system.mem_ctrls.wrQLenPdf::40                      0                       # What write queue length does an incoming req see
system.mem_ctrls.wrQLenPdf::41                      0                       # What write queue length does an incoming req see
system.mem_ctrls.wrQLenPdf::42                      0                       # What write queue length does an incoming req see
system.mem_ctrls.wrQLenPdf::43                      0                       # What write queue length does an incoming req see
system.mem_ctrls.wrQLenPdf::44                      0                       # What write queue length does an incoming req see
system.mem_ctrls.wrQLenPdf::45                      0                       # What write queue length does an incoming req see
system.mem_ctrls.wrQLenPdf::46                      0                       # What write queue length does an incoming req see
system.mem_ctrls.wrQLenPdf::47                      0                       # What write queue length does an incoming req see
system.mem_ctrls.wrQLenPdf::48                      0                       # What write queue length does an incoming req see
system.mem_ctrls.wrQLenPdf::49                      0                       # What write queue length does an incoming req see
system.mem_ctrls.wrQLenPdf::50                      0                       # What write queue length does an incoming req see
system.mem_ctrls.wrQLenPdf::51                      0                       # What write queue length does an incoming req see
system.mem_ctrls.wrQLenPdf::52                      0                       # What write queue length does an incoming req see
system.mem_ctrls.wrQLenPdf::53                      0                       # What write queue length does an incoming req see
system.mem_ctrls.wrQLenPdf::54                      0                       # What write queue length does an incoming req see
system.mem_ctrls.wrQLenPdf::55                      0                       # What write queue length does an incoming req see
system.mem_ctrls.wrQLenPdf::56                      0                       # What write queue length does an incoming req see
system.mem_ctrls.wrQLenPdf::57                      0                       # What write queue length does an incoming req see
system.mem_ctrls.wrQLenPdf::58                      0                       # What write queue length does an incoming req see
system.mem_ctrls.wrQLenPdf::59                      0                       # What write queue length does an incoming req see
system.mem_ctrls.wrQLenPdf::60                      0                       # What write queue length does an incoming req see
system.mem_ctrls.wrQLenPdf::61                      0                       # What write queue length does an incoming req see
system.mem_ctrls.wrQLenPdf::62                      0                       # What write queue length does an incoming req see
system.mem_ctrls.wrQLenPdf::63                      0                       # What write queue length does an incoming req see
system.mem_ctrls.bytesPerActivate::samples          213                       # Bytes accessed per row activation
system.mem_ctrls.bytesPerActivate::mean    326.009390                       # Bytes accessed per row activation
system.mem_ctrls.bytesPerActivate::gmean   194.896640                       # Bytes accessed per row activation
system.mem_ctrls.bytesPerActivate::stdev   328.171061                       # Bytes accessed per row activation
system.mem_ctrls.bytesPerActivate::0-127           75     35.21%     35.21% # Bytes accessed per row activation
system.mem_ctrls.bytesPerActivate::128-255           50     23.47%     58.69% # Bytes accessed per row activation
system.mem_ctrls.bytesPerActivate::256-383           19      8.92%     67.61% # Bytes accessed per row activation
system.mem_ctrls.bytesPerActivate::384-511           14      6.57%     74.18% # Bytes accessed per row activation
system.mem_ctrls.bytesPerActivate::512-639           11      5.16%     79.34% # Bytes accessed per row activation
system.mem_ctrls.bytesPerActivate::640-767            9      4.23%     83.57% # Bytes accessed per row activation
system.mem_ctrls.bytesPerActivate::768-895            9      4.23%     87.79% # Bytes accessed per row activation
system.mem_ctrls.bytesPerActivate::896-1023            3      1.41%     89.20% # Bytes accessed per row activation
system.mem_ctrls.bytesPerActivate::1024-1151           23     10.80%    100.00% # Bytes accessed per row activation
system.mem_ctrls.bytesPerActivate::total          213                       # Bytes accessed per row activation
system.mem_ctrls.totQLat                     15525750                       # Total ticks spent queuing
system.mem_ctrls.totMemAccLat                36675750                       # Total ticks spent from burst creation until serviced by the DRAM
system.mem_ctrls.totBusLat                    5640000                       # Total ticks spent in databus transfers
system.mem_ctrls.avgQLat                     13763.96                       # Average queueing delay per DRAM burst
system.mem_ctrls.avgBusLat                    5000.00                       # Average bus latency per DRAM burst
system.mem_ctrls.avgMemAccLat                32513.96                       # Average memory access latency per DRAM burst
system.mem_ctrls.avgRdBW                      2003.36                       # Average DRAM read bandwidth in MiByte/s
system.mem_ctrls.avgWrBW                         0.00                       # Average achieved write bandwidth in MiByte/s
system.mem_ctrls.avgRdBWSys                   2012.24                       # Average system read bandwidth in MiByte/s
system.mem_ctrls.avgWrBWSys                      8.88                       # Average system write bandwidth in MiByte/s
system.mem_ctrls.peakBW                      12800.00                       # Theoretical peak bandwidth in MiByte/s
system.mem_ctrls.busUtil                        15.65                       # Data bus utilization in percentage
system.mem_ctrls.busUtilRead                    15.65                       # Data bus utilization in percentage for reads
system.mem_ctrls.busUtilWrite                    0.00                       # Data bus utilization in percentage for writes
system.mem_ctrls.avgRdQLen                       2.04                       # Average read queue length when enqueuing
system.mem_ctrls.avgWrQLen                       0.95                       # Average write queue length when enqueuing
system.mem_ctrls.readRowHits                      903                       # Number of row buffer hits during reads
system.mem_ctrls.writeRowHits                       0                       # Number of row buffer hits during writes
system.mem_ctrls.readRowHitRate                 80.05                       # Row buffer hit rate for reads
system.mem_ctrls.writeRowHitRate                 0.00                       # Row buffer hit rate for writes
system.mem_ctrls.avgGap                      31659.05                       # Average gap between requests
system.mem_ctrls.pageHitRate                    79.77                       # Row buffer hit rate, read and write combined
system.mem_ctrls_0.actEnergy                  1209600                       # Energy for activate commands per rank (pJ)
system.mem_ctrls_0.preEnergy                   660000                       # Energy for precharge commands per rank (pJ)
system.mem_ctrls_0.readEnergy                 6052800                       # Energy for read commands per rank (pJ)
system.mem_ctrls_0.writeEnergy                      0                       # Energy for write commands per rank (pJ)
system.mem_ctrls_0.refreshEnergy              2034240                       # Energy for refresh commands per rank (pJ)
system.mem_ctrls_0.actBackEnergy             21414330                       # Energy for active background per rank (pJ)
system.mem_ctrls_0.preBackEnergy                58500                       # Energy for precharge background per rank (pJ)
system.mem_ctrls_0.totalEnergy               31429470                       # Total energy per rank (pJ)
system.mem_ctrls_0.averagePower           1000.779175                       # Core power per rank (mW)
system.mem_ctrls_0.memoryStateTime::IDLE         1000                       # Time in different power states
system.mem_ctrls_0.memoryStateTime::REF       1040000                       # Time in different power states
system.mem_ctrls_0.memoryStateTime::PRE_PDN            0                       # Time in different power states
system.mem_ctrls_0.memoryStateTime::ACT      30377750                       # Time in different power states
system.mem_ctrls_0.memoryStateTime::ACT_PDN            0                       # Time in different power states
system.mem_ctrls_1.actEnergy                   196560                       # Energy for activate commands per rank (pJ)
system.mem_ctrls_1.preEnergy                   107250                       # Energy for precharge commands per rank (pJ)
system.mem_ctrls_1.readEnergy                 1123200                       # Energy for read commands per rank (pJ)
system.mem_ctrls_1.writeEnergy                      0                       # Energy for write commands per rank (pJ)
system.mem_ctrls_1.refreshEnergy              2034240                       # Energy for refresh commands per rank (pJ)
system.mem_ctrls_1.actBackEnergy             20767950                       # Energy for active background per rank (pJ)
system.mem_ctrls_1.preBackEnergy               625500                       # Energy for precharge background per rank (pJ)
system.mem_ctrls_1.totalEnergy               24854700                       # Total energy per rank (pJ)
system.mem_ctrls_1.averagePower            791.424932                       # Core power per rank (mW)
system.mem_ctrls_1.memoryStateTime::IDLE      1071250                       # Time in different power states
system.mem_ctrls_1.memoryStateTime::REF       1040000                       # Time in different power states
system.mem_ctrls_1.memoryStateTime::PRE_PDN            0                       # Time in different power states
system.mem_ctrls_1.memoryStateTime::ACT      29432750                       # Time in different power states
system.mem_ctrls_1.memoryStateTime::ACT_PDN            0                       # Time in different power states
system.cpu0.branchPred.lookups                   9847                       # Number of BP lookups
system.cpu0.branchPred.condPredicted             7674                       # Number of conditional branches predicted
system.cpu0.branchPred.condIncorrect              930                       # Number of conditional branches incorrect
system.cpu0.branchPred.BTBLookups                6722                       # Number of BTB lookups
system.cpu0.branchPred.BTBHits                   3682                       # Number of BTB hits
system.cpu0.branchPred.BTBCorrect                   0                       # Number of correct BTB predictions (this stat may not work properly.
system.cpu0.branchPred.BTBHitPct            54.775364                       # BTB Hit Percentage
system.cpu0.branchPred.usedRAS                    844                       # Number of times the RAS was used to get a target.
system.cpu0.branchPred.RASInCorrect                12                       # Number of incorrect RAS predictions.
system.cpu_voltage_domain.voltage                   1                       # Voltage in Volts
system.cpu_clk_domain.clock                       500                       # Clock period in ticks
system.cpu0.dstage2_mmu.stage2_tlb.walker.walks            0                       # Table walker walks requested
system.cpu0.dstage2_mmu.stage2_tlb.walker.walkRequestOrigin_Requested::Data            0                       # Table walker requests started/completed, data/inst
system.cpu0.dstage2_mmu.stage2_tlb.walker.walkRequestOrigin_Requested::Inst            0                       # Table walker requests started/completed, data/inst
system.cpu0.dstage2_mmu.stage2_tlb.walker.walkRequestOrigin_Requested::total            0                       # Table walker requests started/completed, data/inst
system.cpu0.dstage2_mmu.stage2_tlb.walker.walkRequestOrigin_Completed::Data            0                       # Table walker requests started/completed, data/inst
system.cpu0.dstage2_mmu.stage2_tlb.walker.walkRequestOrigin_Completed::Inst            0                       # Table walker requests started/completed, data/inst
system.cpu0.dstage2_mmu.stage2_tlb.walker.walkRequestOrigin_Completed::total            0                       # Table walker requests started/completed, data/inst
system.cpu0.dstage2_mmu.stage2_tlb.walker.walkRequestOrigin::total            0                       # Table walker requests started/completed, data/inst
system.cpu0.dstage2_mmu.stage2_tlb.inst_hits            0                       # ITB inst hits
system.cpu0.dstage2_mmu.stage2_tlb.inst_misses            0                       # ITB inst misses
system.cpu0.dstage2_mmu.stage2_tlb.read_hits            0                       # DTB read hits
system.cpu0.dstage2_mmu.stage2_tlb.read_misses            0                       # DTB read misses
system.cpu0.dstage2_mmu.stage2_tlb.write_hits            0                       # DTB write hits
system.cpu0.dstage2_mmu.stage2_tlb.write_misses            0                       # DTB write misses
system.cpu0.dstage2_mmu.stage2_tlb.flush_tlb            0                       # Number of times complete TLB was flushed
system.cpu0.dstage2_mmu.stage2_tlb.flush_tlb_mva            0                       # Number of times TLB was flushed by MVA
system.cpu0.dstage2_mmu.stage2_tlb.flush_tlb_mva_asid            0                       # Number of times TLB was flushed by MVA & ASID
system.cpu0.dstage2_mmu.stage2_tlb.flush_tlb_asid            0                       # Number of times TLB was flushed by ASID
system.cpu0.dstage2_mmu.stage2_tlb.flush_entries            0                       # Number of entries that have been flushed from TLB
system.cpu0.dstage2_mmu.stage2_tlb.align_faults            0                       # Number of TLB faults due to alignment restrictions
system.cpu0.dstage2_mmu.stage2_tlb.prefetch_faults            0                       # Number of TLB faults due to prefetch
system.cpu0.dstage2_mmu.stage2_tlb.domain_faults            0                       # Number of TLB faults due to domain restrictions
system.cpu0.dstage2_mmu.stage2_tlb.perms_faults            0                       # Number of TLB faults due to permissions restrictions
system.cpu0.dstage2_mmu.stage2_tlb.read_accesses            0                       # DTB read accesses
system.cpu0.dstage2_mmu.stage2_tlb.write_accesses            0                       # DTB write accesses
system.cpu0.dstage2_mmu.stage2_tlb.inst_accesses            0                       # ITB inst accesses
system.cpu0.dstage2_mmu.stage2_tlb.hits             0                       # DTB hits
system.cpu0.dstage2_mmu.stage2_tlb.misses            0                       # DTB misses
system.cpu0.dstage2_mmu.stage2_tlb.accesses            0                       # DTB accesses
system.cpu0.dtb.walker.walks                        0                       # Table walker walks requested
system.cpu0.dtb.walker.walkRequestOrigin_Requested::Data            0                       # Table walker requests started/completed, data/inst
system.cpu0.dtb.walker.walkRequestOrigin_Requested::Inst            0                       # Table walker requests started/completed, data/inst
system.cpu0.dtb.walker.walkRequestOrigin_Requested::total            0                       # Table walker requests started/completed, data/inst
system.cpu0.dtb.walker.walkRequestOrigin_Completed::Data            0                       # Table walker requests started/completed, data/inst
system.cpu0.dtb.walker.walkRequestOrigin_Completed::Inst            0                       # Table walker requests started/completed, data/inst
system.cpu0.dtb.walker.walkRequestOrigin_Completed::total            0                       # Table walker requests started/completed, data/inst
system.cpu0.dtb.walker.walkRequestOrigin::total            0                       # Table walker requests started/completed, data/inst
system.cpu0.dtb.inst_hits                           0                       # ITB inst hits
system.cpu0.dtb.inst_misses                         0                       # ITB inst misses
system.cpu0.dtb.read_hits                           0                       # DTB read hits
system.cpu0.dtb.read_misses                         0                       # DTB read misses
system.cpu0.dtb.write_hits                          0                       # DTB write hits
system.cpu0.dtb.write_misses                        0                       # DTB write misses
system.cpu0.dtb.flush_tlb                           0                       # Number of times complete TLB was flushed
system.cpu0.dtb.flush_tlb_mva                       0                       # Number of times TLB was flushed by MVA
system.cpu0.dtb.flush_tlb_mva_asid                  0                       # Number of times TLB was flushed by MVA & ASID
system.cpu0.dtb.flush_tlb_asid                      0                       # Number of times TLB was flushed by ASID
system.cpu0.dtb.flush_entries                       0                       # Number of entries that have been flushed from TLB
system.cpu0.dtb.align_faults                        0                       # Number of TLB faults due to alignment restrictions
system.cpu0.dtb.prefetch_faults                     0                       # Number of TLB faults due to prefetch
system.cpu0.dtb.domain_faults                       0                       # Number of TLB faults due to domain restrictions
system.cpu0.dtb.perms_faults                        0                       # Number of TLB faults due to permissions restrictions
system.cpu0.dtb.read_accesses                       0                       # DTB read accesses
system.cpu0.dtb.write_accesses                      0                       # DTB write accesses
system.cpu0.dtb.inst_accesses                       0                       # ITB inst accesses
system.cpu0.dtb.hits                                0                       # DTB hits
system.cpu0.dtb.misses                              0                       # DTB misses
system.cpu0.dtb.accesses                            0                       # DTB accesses
system.cpu0.istage2_mmu.stage2_tlb.walker.walks            0                       # Table walker walks requested
system.cpu0.istage2_mmu.stage2_tlb.walker.walkRequestOrigin_Requested::Data            0                       # Table walker requests started/completed, data/inst
system.cpu0.istage2_mmu.stage2_tlb.walker.walkRequestOrigin_Requested::Inst            0                       # Table walker requests started/completed, data/inst
system.cpu0.istage2_mmu.stage2_tlb.walker.walkRequestOrigin_Requested::total            0                       # Table walker requests started/completed, data/inst
system.cpu0.istage2_mmu.stage2_tlb.walker.walkRequestOrigin_Completed::Data            0                       # Table walker requests started/completed, data/inst
system.cpu0.istage2_mmu.stage2_tlb.walker.walkRequestOrigin_Completed::Inst            0                       # Table walker requests started/completed, data/inst
system.cpu0.istage2_mmu.stage2_tlb.walker.walkRequestOrigin_Completed::total            0                       # Table walker requests started/completed, data/inst
system.cpu0.istage2_mmu.stage2_tlb.walker.walkRequestOrigin::total            0                       # Table walker requests started/completed, data/inst
system.cpu0.istage2_mmu.stage2_tlb.inst_hits            0                       # ITB inst hits
system.cpu0.istage2_mmu.stage2_tlb.inst_misses            0                       # ITB inst misses
system.cpu0.istage2_mmu.stage2_tlb.read_hits            0                       # DTB read hits
system.cpu0.istage2_mmu.stage2_tlb.read_misses            0                       # DTB read misses
system.cpu0.istage2_mmu.stage2_tlb.write_hits            0                       # DTB write hits
system.cpu0.istage2_mmu.stage2_tlb.write_misses            0                       # DTB write misses
system.cpu0.istage2_mmu.stage2_tlb.flush_tlb            0                       # Number of times complete TLB was flushed
system.cpu0.istage2_mmu.stage2_tlb.flush_tlb_mva            0                       # Number of times TLB was flushed by MVA
system.cpu0.istage2_mmu.stage2_tlb.flush_tlb_mva_asid            0                       # Number of times TLB was flushed by MVA & ASID
system.cpu0.istage2_mmu.stage2_tlb.flush_tlb_asid            0                       # Number of times TLB was flushed by ASID
system.cpu0.istage2_mmu.stage2_tlb.flush_entries            0                       # Number of entries that have been flushed from TLB
system.cpu0.istage2_mmu.stage2_tlb.align_faults            0                       # Number of TLB faults due to alignment restrictions
system.cpu0.istage2_mmu.stage2_tlb.prefetch_faults            0                       # Number of TLB faults due to prefetch
system.cpu0.istage2_mmu.stage2_tlb.domain_faults            0                       # Number of TLB faults due to domain restrictions
system.cpu0.istage2_mmu.stage2_tlb.perms_faults            0                       # Number of TLB faults due to permissions restrictions
system.cpu0.istage2_mmu.stage2_tlb.read_accesses            0                       # DTB read accesses
system.cpu0.istage2_mmu.stage2_tlb.write_accesses            0                       # DTB write accesses
system.cpu0.istage2_mmu.stage2_tlb.inst_accesses            0                       # ITB inst accesses
system.cpu0.istage2_mmu.stage2_tlb.hits             0                       # DTB hits
system.cpu0.istage2_mmu.stage2_tlb.misses            0                       # DTB misses
system.cpu0.istage2_mmu.stage2_tlb.accesses            0                       # DTB accesses
system.cpu0.itb.walker.walks                        0                       # Table walker walks requested
system.cpu0.itb.walker.walkRequestOrigin_Requested::Data            0                       # Table walker requests started/completed, data/inst
system.cpu0.itb.walker.walkRequestOrigin_Requested::Inst            0                       # Table walker requests started/completed, data/inst
system.cpu0.itb.walker.walkRequestOrigin_Requested::total            0                       # Table walker requests started/completed, data/inst
system.cpu0.itb.walker.walkRequestOrigin_Completed::Data            0                       # Table walker requests started/completed, data/inst
system.cpu0.itb.walker.walkRequestOrigin_Completed::Inst            0                       # Table walker requests started/completed, data/inst
system.cpu0.itb.walker.walkRequestOrigin_Completed::total            0                       # Table walker requests started/completed, data/inst
system.cpu0.itb.walker.walkRequestOrigin::total            0                       # Table walker requests started/completed, data/inst
system.cpu0.itb.inst_hits                           0                       # ITB inst hits
system.cpu0.itb.inst_misses                         0                       # ITB inst misses
system.cpu0.itb.read_hits                           0                       # DTB read hits
system.cpu0.itb.read_misses                         0                       # DTB read misses
system.cpu0.itb.write_hits                          0                       # DTB write hits
system.cpu0.itb.write_misses                        0                       # DTB write misses
system.cpu0.itb.flush_tlb                           0                       # Number of times complete TLB was flushed
system.cpu0.itb.flush_tlb_mva                       0                       # Number of times TLB was flushed by MVA
system.cpu0.itb.flush_tlb_mva_asid                  0                       # Number of times TLB was flushed by MVA & ASID
system.cpu0.itb.flush_tlb_asid                      0                       # Number of times TLB was flushed by ASID
system.cpu0.itb.flush_entries                       0                       # Number of entries that have been flushed from TLB
system.cpu0.itb.align_faults                        0                       # Number of TLB faults due to alignment restrictions
system.cpu0.itb.prefetch_faults                     0                       # Number of TLB faults due to prefetch
system.cpu0.itb.domain_faults                       0                       # Number of TLB faults due to domain restrictions
system.cpu0.itb.perms_faults                        0                       # Number of TLB faults due to permissions restrictions
system.cpu0.itb.read_accesses                       0                       # DTB read accesses
system.cpu0.itb.write_accesses                      0                       # DTB write accesses
system.cpu0.itb.inst_accesses                       0                       # ITB inst accesses
system.cpu0.itb.hits                                0                       # DTB hits
system.cpu0.itb.misses                              0                       # DTB misses
system.cpu0.itb.accesses                            0                       # DTB accesses
system.cpu0.workload.num_syscalls                 115                       # Number of system calls
system.cpu0.numCycles                           72072                       # number of cpu cycles simulated
system.cpu0.numWorkItemsStarted                     0                       # number of work items this cpu started
system.cpu0.numWorkItemsCompleted                   0                       # number of work items this cpu completed
system.cpu0.fetch.icacheStallCycles             18230                       # Number of cycles fetch is stalled on an Icache miss
system.cpu0.fetch.Insts                         48929                       # Number of instructions fetch has processed
system.cpu0.fetch.Branches                       9847                       # Number of branches that fetch encountered
system.cpu0.fetch.predictedBranches              4526                       # Number of branches that fetch has predicted taken
system.cpu0.fetch.Cycles                        19491                       # Number of cycles fetch has run and was not squashing or blocked
system.cpu0.fetch.SquashCycles                   2003                       # Number of cycles fetch has spent squashing
system.cpu0.fetch.MiscStallCycles                   1                       # Number of cycles fetch has spent waiting on interrupts, or bad addresses, or out of MSHRs
system.cpu0.fetch.PendingTrapStallCycles            1                       # Number of stall cycles due to pending traps
system.cpu0.fetch.CacheLines                     5411                       # Number of cache lines fetched
system.cpu0.fetch.IcacheSquashes                  613                       # Number of outstanding Icache misses that were squashed
system.cpu0.fetch.rateDist::samples             38724                       # Number of instructions fetched each cycle (Total)
system.cpu0.fetch.rateDist::mean             1.461652                       # Number of instructions fetched each cycle (Total)
system.cpu0.fetch.rateDist::stdev            2.850736                       # Number of instructions fetched each cycle (Total)
system.cpu0.fetch.rateDist::underflows              0      0.00%      0.00% # Number of instructions fetched each cycle (Total)
system.cpu0.fetch.rateDist::0                   29249     75.53%     75.53% # Number of instructions fetched each cycle (Total)
system.cpu0.fetch.rateDist::1                     695      1.79%     77.33% # Number of instructions fetched each cycle (Total)
system.cpu0.fetch.rateDist::2                     865      2.23%     79.56% # Number of instructions fetched each cycle (Total)
system.cpu0.fetch.rateDist::3                     638      1.65%     81.21% # Number of instructions fetched each cycle (Total)
system.cpu0.fetch.rateDist::4                     578      1.49%     82.70% # Number of instructions fetched each cycle (Total)
system.cpu0.fetch.rateDist::5                     487      1.26%     83.96% # Number of instructions fetched each cycle (Total)
system.cpu0.fetch.rateDist::6                     624      1.61%     85.57% # Number of instructions fetched each cycle (Total)
system.cpu0.fetch.rateDist::7                     933      2.41%     87.98% # Number of instructions fetched each cycle (Total)
system.cpu0.fetch.rateDist::8                    4655     12.02%    100.00% # Number of instructions fetched each cycle (Total)
system.cpu0.fetch.rateDist::overflows               0      0.00%    100.00% # Number of instructions fetched each cycle (Total)
system.cpu0.fetch.rateDist::min_value               0                       # Number of instructions fetched each cycle (Total)
system.cpu0.fetch.rateDist::max_value               8                       # Number of instructions fetched each cycle (Total)
system.cpu0.fetch.rateDist::total               38724                       # Number of instructions fetched each cycle (Total)
system.cpu0.fetch.branchRate                 0.136627                       # Number of branch fetches per cycle
system.cpu0.fetch.rate                       0.678891                       # Number of inst fetches per cycle
system.cpu0.decode.IdleCycles                   14443                       # Number of cycles decode is idle
system.cpu0.decode.BlockedCycles                15410                       # Number of cycles decode is blocked
system.cpu0.decode.RunCycles                     7454                       # Number of cycles decode is running
system.cpu0.decode.UnblockCycles                  715                       # Number of cycles decode is unblocking
system.cpu0.decode.SquashCycles                   702                       # Number of cycles decode is squashing
system.cpu0.decode.BranchResolved                 917                       # Number of times decode resolved a branch
system.cpu0.decode.BranchMispred                  311                       # Number of times decode detected a branch misprediction
system.cpu0.decode.DecodedInsts                 49875                       # Number of instructions handled by decode
system.cpu0.decode.SquashedInsts                 1120                       # Number of squashed instructions handled by decode
system.cpu0.rename.SquashCycles                   702                       # Number of cycles rename is squashing
system.cpu0.rename.IdleCycles                   15134                       # Number of cycles rename is idle
system.cpu0.rename.BlockCycles                   2398                       # Number of cycles rename is blocking
system.cpu0.rename.serializeStallCycles          7106                       # count of cycles rename stalled for serializing inst
system.cpu0.rename.RunCycles                     7431                       # Number of cycles rename is running
system.cpu0.rename.UnblockCycles                 5953                       # Number of cycles rename is unblocking
system.cpu0.rename.RenamedInsts                 48099                       # Number of instructions processed by rename
system.cpu0.rename.ROBFullEvents                    4                       # Number of times rename has blocked due to ROB full
system.cpu0.rename.IQFullEvents                   183                       # Number of times rename has blocked due to IQ full
system.cpu0.rename.LQFullEvents                   226                       # Number of times rename has blocked due to LQ full
system.cpu0.rename.SQFullEvents                  5272                       # Number of times rename has blocked due to SQ full
system.cpu0.rename.RenamedOperands              59282                       # Number of destination operands rename has renamed
system.cpu0.rename.RenameLookups               226904                       # Number of register rename lookups that rename has made
system.cpu0.rename.int_rename_lookups           60043                       # Number of integer rename lookups
system.cpu0.rename.fp_rename_lookups               22                       # Number of floating rename lookups
system.cpu0.rename.CommittedMaps                41258                       # Number of HB maps that are committed
system.cpu0.rename.UndoneMaps                   18024                       # Number of HB maps that are undone due to squashing
system.cpu0.rename.serializingInsts               131                       # count of serializing insts renamed
system.cpu0.rename.tempSerializingInsts           131                       # count of temporary serializing insts renamed
system.cpu0.rename.skidInsts                     3399                       # count of insts added to the skid buffer
system.cpu0.memDep0.insertedLoads                7484                       # Number of loads inserted to the mem dependence unit.
system.cpu0.memDep0.insertedStores               5980                       # Number of stores inserted to the mem dependence unit.
system.cpu0.memDep0.conflictingLoads              672                       # Number of conflicting loads.
system.cpu0.memDep0.conflictingStores             594                       # Number of conflicting stores.
system.cpu0.iq.iqInstsAdded                     45024                       # Number of instructions added to the IQ (excludes non-spec)
system.cpu0.iq.iqNonSpecInstsAdded                277                       # Number of non-speculative instructions added to the IQ
system.cpu0.iq.iqInstsIssued                    39604                       # Number of instructions issued
system.cpu0.iq.iqSquashedInstsIssued               81                       # Number of squashed instructions issued
system.cpu0.iq.iqSquashedInstsExamined          12808                       # Number of squashed instructions iterated over during squash; mainly for profiling
system.cpu0.iq.iqSquashedOperandsExamined        33655                       # Number of squashed operands that are examined and possibly removed from graph
system.cpu0.iq.iqSquashedNonSpecRemoved            71                       # Number of squashed non-spec instructions that were removed
system.cpu0.iq.issued_per_cycle::samples        38724                       # Number of insts issued each cycle
system.cpu0.iq.issued_per_cycle::mean        1.022725                       # Number of insts issued each cycle
system.cpu0.iq.issued_per_cycle::stdev       1.927863                       # Number of insts issued each cycle
system.cpu0.iq.issued_per_cycle::underflows            0      0.00%      0.00% # Number of insts issued each cycle
system.cpu0.iq.issued_per_cycle::0              26828     69.28%     69.28% # Number of insts issued each cycle
system.cpu0.iq.issued_per_cycle::1               3206      8.28%     77.56% # Number of insts issued each cycle
system.cpu0.iq.issued_per_cycle::2               2045      5.28%     82.84% # Number of insts issued each cycle
system.cpu0.iq.issued_per_cycle::3               1657      4.28%     87.12% # Number of insts issued each cycle
system.cpu0.iq.issued_per_cycle::4               1601      4.13%     91.25% # Number of insts issued each cycle
system.cpu0.iq.issued_per_cycle::5               1060      2.74%     93.99% # Number of insts issued each cycle
system.cpu0.iq.issued_per_cycle::6                913      2.36%     96.35% # Number of insts issued each cycle
system.cpu0.iq.issued_per_cycle::7               1157      2.99%     99.34% # Number of insts issued each cycle
system.cpu0.iq.issued_per_cycle::8                257      0.66%    100.00% # Number of insts issued each cycle
system.cpu0.iq.issued_per_cycle::overflows            0      0.00%    100.00% # Number of insts issued each cycle
system.cpu0.iq.issued_per_cycle::min_value            0                       # Number of insts issued each cycle
system.cpu0.iq.issued_per_cycle::max_value            8                       # Number of insts issued each cycle
system.cpu0.iq.issued_per_cycle::total          38724                       # Number of insts issued each cycle
system.cpu0.iq.fu_full::No_OpClass                  0      0.00%      0.00% # attempts to use FU when none available
system.cpu0.iq.fu_full::IntAlu                    722     59.62%     59.62% # attempts to use FU when none available
system.cpu0.iq.fu_full::IntMult                    60      4.95%     64.57% # attempts to use FU when none available
system.cpu0.iq.fu_full::IntDiv                      0      0.00%     64.57% # attempts to use FU when none available
system.cpu0.iq.fu_full::FloatAdd                    0      0.00%     64.57% # attempts to use FU when none available
system.cpu0.iq.fu_full::FloatCmp                    0      0.00%     64.57% # attempts to use FU when none available
system.cpu0.iq.fu_full::FloatCvt                    0      0.00%     64.57% # attempts to use FU when none available
system.cpu0.iq.fu_full::FloatMult                   0      0.00%     64.57% # attempts to use FU when none available
system.cpu0.iq.fu_full::FloatDiv                    0      0.00%     64.57% # attempts to use FU when none available
system.cpu0.iq.fu_full::FloatSqrt                   0      0.00%     64.57% # attempts to use FU when none available
system.cpu0.iq.fu_full::SimdAdd                     0      0.00%     64.57% # attempts to use FU when none available
system.cpu0.iq.fu_full::SimdAddAcc                  0      0.00%     64.57% # attempts to use FU when none available
system.cpu0.iq.fu_full::SimdAlu                     0      0.00%     64.57% # attempts to use FU when none available
system.cpu0.iq.fu_full::SimdCmp                     0      0.00%     64.57% # attempts to use FU when none available
system.cpu0.iq.fu_full::SimdCvt                     0      0.00%     64.57% # attempts to use FU when none available
system.cpu0.iq.fu_full::SimdMisc                    0      0.00%     64.57% # attempts to use FU when none available
system.cpu0.iq.fu_full::SimdMult                    0      0.00%     64.57% # attempts to use FU when none available
system.cpu0.iq.fu_full::SimdMultAcc                 0      0.00%     64.57% # attempts to use FU when none available
system.cpu0.iq.fu_full::SimdShift                   0      0.00%     64.57% # attempts to use FU when none available
system.cpu0.iq.fu_full::SimdShiftAcc                0      0.00%     64.57% # attempts to use FU when none available
system.cpu0.iq.fu_full::SimdSqrt                    0      0.00%     64.57% # attempts to use FU when none available
system.cpu0.iq.fu_full::SimdFloatAdd                0      0.00%     64.57% # attempts to use FU when none available
system.cpu0.iq.fu_full::SimdFloatAlu                0      0.00%     64.57% # attempts to use FU when none available
system.cpu0.iq.fu_full::SimdFloatCmp                0      0.00%     64.57% # attempts to use FU when none available
system.cpu0.iq.fu_full::SimdFloatCvt                0      0.00%     64.57% # attempts to use FU when none available
system.cpu0.iq.fu_full::SimdFloatDiv                0      0.00%     64.57% # attempts to use FU when none available
system.cpu0.iq.fu_full::SimdFloatMisc               0      0.00%     64.57% # attempts to use FU when none available
system.cpu0.iq.fu_full::SimdFloatMult               0      0.00%     64.57% # attempts to use FU when none available
system.cpu0.iq.fu_full::SimdFloatMultAcc            0      0.00%     64.57% # attempts to use FU when none available
system.cpu0.iq.fu_full::SimdFloatSqrt               0      0.00%     64.57% # attempts to use FU when none available
system.cpu0.iq.fu_full::MemRead                   211     17.42%     82.00% # attempts to use FU when none available
system.cpu0.iq.fu_full::MemWrite                  218     18.00%    100.00% # attempts to use FU when none available
system.cpu0.iq.fu_full::IprAccess                   0      0.00%    100.00% # attempts to use FU when none available
system.cpu0.iq.fu_full::InstPrefetch                0      0.00%    100.00% # attempts to use FU when none available
system.cpu0.iq.FU_type_0::No_OpClass                0      0.00%      0.00% # Type of FU issued
system.cpu0.iq.FU_type_0::IntAlu                26869     67.84%     67.84% # Type of FU issued
system.cpu0.iq.FU_type_0::IntMult                 549      1.39%     69.23% # Type of FU issued
system.cpu0.iq.FU_type_0::IntDiv                    0      0.00%     69.23% # Type of FU issued
system.cpu0.iq.FU_type_0::FloatAdd                  0      0.00%     69.23% # Type of FU issued
system.cpu0.iq.FU_type_0::FloatCmp                  0      0.00%     69.23% # Type of FU issued
system.cpu0.iq.FU_type_0::FloatCvt                  0      0.00%     69.23% # Type of FU issued
system.cpu0.iq.FU_type_0::FloatMult                 0      0.00%     69.23% # Type of FU issued
system.cpu0.iq.FU_type_0::FloatDiv                  0      0.00%     69.23% # Type of FU issued
system.cpu0.iq.FU_type_0::FloatSqrt                 0      0.00%     69.23% # Type of FU issued
system.cpu0.iq.FU_type_0::SimdAdd                   0      0.00%     69.23% # Type of FU issued
system.cpu0.iq.FU_type_0::SimdAddAcc                0      0.00%     69.23% # Type of FU issued
system.cpu0.iq.FU_type_0::SimdAlu                   0      0.00%     69.23% # Type of FU issued
system.cpu0.iq.FU_type_0::SimdCmp                   0      0.00%     69.23% # Type of FU issued
system.cpu0.iq.FU_type_0::SimdCvt                   0      0.00%     69.23% # Type of FU issued
system.cpu0.iq.FU_type_0::SimdMisc                  0      0.00%     69.23% # Type of FU issued
system.cpu0.iq.FU_type_0::SimdMult                  0      0.00%     69.23% # Type of FU issued
system.cpu0.iq.FU_type_0::SimdMultAcc               0      0.00%     69.23% # Type of FU issued
system.cpu0.iq.FU_type_0::SimdShift                 0      0.00%     69.23% # Type of FU issued
system.cpu0.iq.FU_type_0::SimdShiftAcc              0      0.00%     69.23% # Type of FU issued
system.cpu0.iq.FU_type_0::SimdSqrt                  0      0.00%     69.23% # Type of FU issued
system.cpu0.iq.FU_type_0::SimdFloatAdd              0      0.00%     69.23% # Type of FU issued
system.cpu0.iq.FU_type_0::SimdFloatAlu              0      0.00%     69.23% # Type of FU issued
system.cpu0.iq.FU_type_0::SimdFloatCmp              0      0.00%     69.23% # Type of FU issued
system.cpu0.iq.FU_type_0::SimdFloatCvt              0      0.00%     69.23% # Type of FU issued
system.cpu0.iq.FU_type_0::SimdFloatDiv              0      0.00%     69.23% # Type of FU issued
system.cpu0.iq.FU_type_0::SimdFloatMisc             3      0.01%     69.24% # Type of FU issued
system.cpu0.iq.FU_type_0::SimdFloatMult             0      0.00%     69.24% # Type of FU issued
system.cpu0.iq.FU_type_0::SimdFloatMultAcc            0      0.00%     69.24% # Type of FU issued
system.cpu0.iq.FU_type_0::SimdFloatSqrt             0      0.00%     69.24% # Type of FU issued
system.cpu0.iq.FU_type_0::MemRead                6965     17.59%     86.82% # Type of FU issued
system.cpu0.iq.FU_type_0::MemWrite               5218     13.18%    100.00% # Type of FU issued
system.cpu0.iq.FU_type_0::IprAccess                 0      0.00%    100.00% # Type of FU issued
system.cpu0.iq.FU_type_0::InstPrefetch              0      0.00%    100.00% # Type of FU issued
system.cpu0.iq.FU_type_0::total                 39604                       # Type of FU issued
system.cpu0.iq.rate                          0.549506                       # Inst issue rate
system.cpu0.iq.fu_busy_cnt                       1211                       # FU busy when requested
system.cpu0.iq.fu_busy_rate                  0.030578                       # FU busy rate (busy events/executed inst)
system.cpu0.iq.int_inst_queue_reads            119164                       # Number of integer instruction queue reads
system.cpu0.iq.int_inst_queue_writes            58144                       # Number of integer instruction queue writes
system.cpu0.iq.int_inst_queue_wakeup_accesses        37657                       # Number of integer instruction queue wakeup accesses
system.cpu0.iq.fp_inst_queue_reads                 60                       # Number of floating instruction queue reads
system.cpu0.iq.fp_inst_queue_writes                28                       # Number of floating instruction queue writes
system.cpu0.iq.fp_inst_queue_wakeup_accesses           28                       # Number of floating instruction queue wakeup accesses
system.cpu0.iq.int_alu_accesses                 40783                       # Number of integer alu accesses
system.cpu0.iq.fp_alu_accesses                     32                       # Number of floating point alu accesses
system.cpu0.iew.lsq.thread0.forwLoads             111                       # Number of loads that had data forwarded from stores
system.cpu0.iew.lsq.thread0.invAddrLoads            0                       # Number of loads ignored due to an invalid address
system.cpu0.iew.lsq.thread0.squashedLoads         2742                       # Number of loads squashed
system.cpu0.iew.lsq.thread0.ignoredResponses            3                       # Number of memory responses ignored because the instruction is squashed
system.cpu0.iew.lsq.thread0.memOrderViolation           65                       # Number of memory ordering violations
system.cpu0.iew.lsq.thread0.squashedStores         1358                       # Number of stores squashed
system.cpu0.iew.lsq.thread0.invAddrSwpfs            0                       # Number of software prefetches ignored due to an invalid address
system.cpu0.iew.lsq.thread0.blockedLoads            0                       # Number of blocked loads due to partial load-store forwarding
system.cpu0.iew.lsq.thread0.rescheduledLoads          128                       # Number of loads that were rescheduled
system.cpu0.iew.lsq.thread0.cacheBlocked           55                       # Number of times an access to memory failed due to the cache being blocked
system.cpu0.iew.iewIdleCycles                       0                       # Number of cycles IEW is idle
system.cpu0.iew.iewSquashCycles                   702                       # Number of cycles IEW is squashing
system.cpu0.iew.iewBlockCycles                   1790                       # Number of cycles IEW is blocking
system.cpu0.iew.iewUnblockCycles                  543                       # Number of cycles IEW is unblocking
system.cpu0.iew.iewDispatchedInsts              45309                       # Number of instructions dispatched to IQ
system.cpu0.iew.iewDispSquashedInsts              212                       # Number of squashed instructions skipped by dispatch
system.cpu0.iew.iewDispLoadInsts                 7484                       # Number of dispatched load instructions
system.cpu0.iew.iewDispStoreInsts                5980                       # Number of dispatched store instructions
system.cpu0.iew.iewDispNonSpecInsts               126                       # Number of dispatched non-speculative instructions
system.cpu0.iew.iewIQFullEvents                    18                       # Number of times the IQ has become full, causing a stall
system.cpu0.iew.iewLSQFullEvents                  514                       # Number of times the LSQ has become full, causing a stall
system.cpu0.iew.memOrderViolationEvents            65                       # Number of memory order violations
system.cpu0.iew.predictedTakenIncorrect           134                       # Number of branches that were predicted taken incorrectly
system.cpu0.iew.predictedNotTakenIncorrect          554                       # Number of branches that were predicted not taken incorrectly
system.cpu0.iew.branchMispredicts                 688                       # Number of branch mispredicts detected at execute
system.cpu0.iew.iewExecutedInsts                38761                       # Number of executed instructions
system.cpu0.iew.iewExecLoadInsts                 6656                       # Number of load instructions executed
system.cpu0.iew.iewExecSquashedInsts              843                       # Number of squashed instructions skipped in execute
system.cpu0.iew.exec_swp                            0                       # number of swp insts executed
system.cpu0.iew.exec_nop                            8                       # number of nop insts executed
system.cpu0.iew.exec_refs                       11691                       # number of memory reference insts executed
system.cpu0.iew.exec_branches                    6466                       # Number of branches executed
system.cpu0.iew.exec_stores                      5035                       # Number of stores executed
system.cpu0.iew.exec_rate                    0.537809                       # Inst execution rate
system.cpu0.iew.wb_sent                         37973                       # cumulative count of insts sent to commit
system.cpu0.iew.wb_count                        37685                       # cumulative count of insts written-back
system.cpu0.iew.wb_producers                    21648                       # num instructions producing a value
system.cpu0.iew.wb_consumers                    45581                       # num instructions consuming a value
system.cpu0.iew.wb_penalized                        0                       # number of instrctions required to write to 'other' IQ
system.cpu0.iew.wb_rate                      0.522880                       # insts written-back per cycle
system.cpu0.iew.wb_fanout                    0.474935                       # average fanout of values written-back
system.cpu0.iew.wb_penalized_rate                   0                       # fraction of instructions written-back that wrote to 'other' IQ
system.cpu0.commit.commitSquashedInsts          12819                       # The number of squashed insts skipped by commit
system.cpu0.commit.commitNonSpecStalls            206                       # The number of times commit has been forced to stall to communicate backwards
system.cpu0.commit.branchMispredicts              631                       # The number of times a branch was mispredicted
system.cpu0.commit.committed_per_cycle::samples        36697                       # Number of insts commited each cycle
system.cpu0.commit.committed_per_cycle::mean     0.885440                       # Number of insts commited each cycle
system.cpu0.commit.committed_per_cycle::stdev     2.033245                       # Number of insts commited each cycle
system.cpu0.commit.committed_per_cycle::underflows            0      0.00%      0.00% # Number of insts commited each cycle
system.cpu0.commit.committed_per_cycle::0        27642     75.32%     75.32% # Number of insts commited each cycle
system.cpu0.commit.committed_per_cycle::1         3126      8.52%     83.84% # Number of insts commited each cycle
system.cpu0.commit.committed_per_cycle::2         1371      3.74%     87.58% # Number of insts commited each cycle
system.cpu0.commit.committed_per_cycle::3          577      1.57%     89.15% # Number of insts commited each cycle
system.cpu0.commit.committed_per_cycle::4          927      2.53%     91.68% # Number of insts commited each cycle
system.cpu0.commit.committed_per_cycle::5          723      1.97%     93.65% # Number of insts commited each cycle
system.cpu0.commit.committed_per_cycle::6          368      1.00%     94.65% # Number of insts commited each cycle
system.cpu0.commit.committed_per_cycle::7          341      0.93%     95.58% # Number of insts commited each cycle
system.cpu0.commit.committed_per_cycle::8         1622      4.42%    100.00% # Number of insts commited each cycle
system.cpu0.commit.committed_per_cycle::overflows            0      0.00%    100.00% # Number of insts commited each cycle
system.cpu0.commit.committed_per_cycle::min_value            0                       # Number of insts commited each cycle
system.cpu0.commit.committed_per_cycle::max_value            8                       # Number of insts commited each cycle
system.cpu0.commit.committed_per_cycle::total        36697                       # Number of insts commited each cycle
system.cpu0.commit.committedInsts               27999                       # Number of instructions committed
system.cpu0.commit.committedOps                 32493                       # Number of ops (including micro ops) committed
system.cpu0.commit.swp_count                        0                       # Number of s/w prefetches committed
system.cpu0.commit.refs                          9364                       # Number of memory references committed
system.cpu0.commit.loads                         4742                       # Number of loads committed
system.cpu0.commit.membars                        121                       # Number of memory barriers committed
system.cpu0.commit.branches                      5487                       # Number of branches committed
system.cpu0.commit.fp_insts                        28                       # Number of committed floating point instructions.
system.cpu0.commit.int_insts                    27555                       # Number of committed integer instructions.
system.cpu0.commit.function_calls                 317                       # Number of function calls committed.
system.cpu0.commit.op_class_0::No_OpClass            0      0.00%      0.00% # Class of committed instruction
system.cpu0.commit.op_class_0::IntAlu           22590     69.52%     69.52% # Class of committed instruction
system.cpu0.commit.op_class_0::IntMult            536      1.65%     71.17% # Class of committed instruction
system.cpu0.commit.op_class_0::IntDiv               0      0.00%     71.17% # Class of committed instruction
system.cpu0.commit.op_class_0::FloatAdd             0      0.00%     71.17% # Class of committed instruction
system.cpu0.commit.op_class_0::FloatCmp             0      0.00%     71.17% # Class of committed instruction
system.cpu0.commit.op_class_0::FloatCvt             0      0.00%     71.17% # Class of committed instruction
system.cpu0.commit.op_class_0::FloatMult            0      0.00%     71.17% # Class of committed instruction
system.cpu0.commit.op_class_0::FloatDiv             0      0.00%     71.17% # Class of committed instruction
system.cpu0.commit.op_class_0::FloatSqrt            0      0.00%     71.17% # Class of committed instruction
system.cpu0.commit.op_class_0::SimdAdd              0      0.00%     71.17% # Class of committed instruction
system.cpu0.commit.op_class_0::SimdAddAcc            0      0.00%     71.17% # Class of committed instruction
system.cpu0.commit.op_class_0::SimdAlu              0      0.00%     71.17% # Class of committed instruction
system.cpu0.commit.op_class_0::SimdCmp              0      0.00%     71.17% # Class of committed instruction
system.cpu0.commit.op_class_0::SimdCvt              0      0.00%     71.17% # Class of committed instruction
system.cpu0.commit.op_class_0::SimdMisc             0      0.00%     71.17% # Class of committed instruction
system.cpu0.commit.op_class_0::SimdMult             0      0.00%     71.17% # Class of committed instruction
system.cpu0.commit.op_class_0::SimdMultAcc            0      0.00%     71.17% # Class of committed instruction
system.cpu0.commit.op_class_0::SimdShift            0      0.00%     71.17% # Class of committed instruction
system.cpu0.commit.op_class_0::SimdShiftAcc            0      0.00%     71.17% # Class of committed instruction
system.cpu0.commit.op_class_0::SimdSqrt             0      0.00%     71.17% # Class of committed instruction
[...]
system.cpu3.dcache.ReadReq_avg_mshr_miss_latency::cpu3.data 25114.864865                       # average ReadReq mshr miss latency
system.cpu3.dcache.ReadReq_avg_mshr_miss_latency::total 25114.864865                       # average ReadReq mshr miss latency
system.cpu3.dcache.WriteReq_avg_mshr_miss_latency::cpu3.data 38979.166667                       # average WriteReq mshr miss latency
system.cpu3.dcache.WriteReq_avg_mshr_miss_latency::total 38979.166667                       # average WriteReq mshr miss latency
system.cpu3.dcache.SoftPFReq_avg_mshr_miss_latency::cpu3.data 24916.666667                       # average SoftPFReq mshr miss latency
system.cpu3.dcache.SoftPFReq_avg_mshr_miss_latency::total 24916.666667                       # average SoftPFReq mshr miss latency
system.cpu3.dcache.LoadLockedReq_avg_mshr_miss_latency::cpu3.data         9500                       # average LoadLockedReq mshr miss latency
system.cpu3.dcache.LoadLockedReq_avg_mshr_miss_latency::total         9500                       # average LoadLockedReq mshr miss latency
system.cpu3.dcache.StoreCondReq_avg_mshr_miss_latency::cpu3.data         9167                       # average StoreCondReq mshr miss latency
system.cpu3.dcache.StoreCondReq_avg_mshr_miss_latency::total         9167                       # average StoreCondReq mshr miss latency
system.cpu3.dcache.demand_avg_mshr_miss_latency::cpu3.data 28510.204082                       # average overall mshr miss latency
system.cpu3.dcache.demand_avg_mshr_miss_latency::total 28510.204082                       # average overall mshr miss latency
system.cpu3.dcache.overall_avg_mshr_miss_latency::cpu3.data 28302.884615                       # average overall mshr miss latency
system.cpu3.dcache.overall_avg_mshr_miss_latency::total 28302.884615                       # average overall mshr miss latency
system.cpu3.dcache.no_allocate_misses               0                       # Number of misses that were no-allocate
system.cpu3.icache.tags.replacements                0                       # number of replacements
system.cpu3.icache.tags.tagsinuse            6.423500                       # Cycle average of tags in use
system.cpu3.icache.tags.total_refs               1024                       # Total number of references to valid blocks.
system.cpu3.icache.tags.sampled_refs               53                       # Sample count of references to valid blocks.
system.cpu3.icache.tags.avg_refs            19.320755                       # Average number of references to valid blocks.
system.cpu3.icache.tags.warmup_cycle                0                       # Cycle when the warmup percentage was hit.
system.cpu3.icache.tags.occ_blocks::cpu3.inst     6.423500                       # Average occupied blocks per requestor
system.cpu3.icache.tags.occ_percent::cpu3.inst     0.012546                       # Average percentage of cache occupancy
system.cpu3.icache.tags.occ_percent::total     0.012546                       # Average percentage of cache occupancy
system.cpu3.icache.tags.occ_task_id_blocks::1024           53                       # Occupied blocks per task id
system.cpu3.icache.tags.age_task_id_blocks_1024::0           53                       # Occupied blocks per task id
system.cpu3.icache.tags.occ_task_id_percent::1024     0.103516                       # Percentage of cache occupancy per task id
system.cpu3.icache.tags.tag_accesses             2249                       # Number of tag accesses
system.cpu3.icache.tags.data_accesses            2249                       # Number of data accesses
system.cpu3.icache.ReadReq_hits::cpu3.inst         1024                       # number of ReadReq hits
system.cpu3.icache.ReadReq_hits::total           1024                       # number of ReadReq hits
system.cpu3.icache.demand_hits::cpu3.inst         1024                       # number of demand (read+write) hits
system.cpu3.icache.demand_hits::total            1024                       # number of demand (read+write) hits
system.cpu3.icache.overall_hits::cpu3.inst         1024                       # number of overall hits
system.cpu3.icache.overall_hits::total           1024                       # number of overall hits
system.cpu3.icache.ReadReq_misses::cpu3.inst           74                       # number of ReadReq misses
system.cpu3.icache.ReadReq_misses::total           74                       # number of ReadReq misses
system.cpu3.icache.demand_misses::cpu3.inst           74                       # number of demand (read+write) misses
system.cpu3.icache.demand_misses::total            74                       # number of demand (read+write) misses
system.cpu3.icache.overall_misses::cpu3.inst           74                       # number of overall misses
system.cpu3.icache.overall_misses::total           74                       # number of overall misses
system.cpu3.icache.ReadReq_miss_latency::cpu3.inst      4411000                       # number of ReadReq miss cycles
system.cpu3.icache.ReadReq_miss_latency::total      4411000                       # number of ReadReq miss cycles
system.cpu3.icache.demand_miss_latency::cpu3.inst      4411000                       # number of demand (read+write) miss cycles
system.cpu3.icache.demand_miss_latency::total      4411000                       # number of demand (read+write) miss cycles
system.cpu3.icache.overall_miss_latency::cpu3.inst      4411000                       # number of overall miss cycles
system.cpu3.icache.overall_miss_latency::total      4411000                       # number of overall miss cycles
system.cpu3.icache.ReadReq_accesses::cpu3.inst         1098                       # number of ReadReq accesses(hits+misses)
system.cpu3.icache.ReadReq_accesses::total         1098                       # number of ReadReq accesses(hits+misses)
system.cpu3.icache.demand_accesses::cpu3.inst         1098                       # number of demand (read+write) accesses
system.cpu3.icache.demand_accesses::total         1098                       # number of demand (read+write) accesses
system.cpu3.icache.overall_accesses::cpu3.inst         1098                       # number of overall (read+write) accesses
system.cpu3.icache.overall_accesses::total         1098                       # number of overall (read+write) accesses
system.cpu3.icache.ReadReq_miss_rate::cpu3.inst     0.067395                       # miss rate for ReadReq accesses
system.cpu3.icache.ReadReq_miss_rate::total     0.067395                       # miss rate for ReadReq accesses
system.cpu3.icache.demand_miss_rate::cpu3.inst     0.067395                       # miss rate for demand accesses
system.cpu3.icache.demand_miss_rate::total     0.067395                       # miss rate for demand accesses
system.cpu3.icache.overall_miss_rate::cpu3.inst     0.067395                       # miss rate for overall accesses
system.cpu3.icache.overall_miss_rate::total     0.067395                       # miss rate for overall accesses
system.cpu3.icache.ReadReq_avg_miss_latency::cpu3.inst 59608.108108                       # average ReadReq miss latency
system.cpu3.icache.ReadReq_avg_miss_latency::total 59608.108108                       # average ReadReq miss latency
system.cpu3.icache.demand_avg_miss_latency::cpu3.inst 59608.108108                       # average overall miss latency
system.cpu3.icache.demand_avg_miss_latency::total 59608.108108                       # average overall miss latency
system.cpu3.icache.overall_avg_miss_latency::cpu3.inst 59608.108108                       # average overall miss latency
system.cpu3.icache.overall_avg_miss_latency::total 59608.108108                       # average overall miss latency
system.cpu3.icache.blocked_cycles::no_mshrs           69                       # number of cycles access was blocked
system.cpu3.icache.blocked_cycles::no_targets            0                       # number of cycles access was blocked
system.cpu3.icache.blocked::no_mshrs                1                       # number of cycles access was blocked
system.cpu3.icache.blocked::no_targets              0                       # number of cycles access was blocked
system.cpu3.icache.avg_blocked_cycles::no_mshrs           69                       # average number of cycles each access was blocked
system.cpu3.icache.avg_blocked_cycles::no_targets          nan                       # average number of cycles each access was blocked
system.cpu3.icache.fast_writes                      0                       # number of fast writes performed
system.cpu3.icache.cache_copies                     0                       # number of cache copies performed
system.cpu3.icache.ReadReq_mshr_hits::cpu3.inst           21                       # number of ReadReq MSHR hits
system.cpu3.icache.ReadReq_mshr_hits::total           21                       # number of ReadReq MSHR hits
system.cpu3.icache.demand_mshr_hits::cpu3.inst           21                       # number of demand (read+write) MSHR hits
system.cpu3.icache.demand_mshr_hits::total           21                       # number of demand (read+write) MSHR hits
system.cpu3.icache.overall_mshr_hits::cpu3.inst           21                       # number of overall MSHR hits
system.cpu3.icache.overall_mshr_hits::total           21                       # number of overall MSHR hits
system.cpu3.icache.ReadReq_mshr_misses::cpu3.inst           53                       # number of ReadReq MSHR misses
system.cpu3.icache.ReadReq_mshr_misses::total           53                       # number of ReadReq MSHR misses
system.cpu3.icache.demand_mshr_misses::cpu3.inst           53                       # number of demand (read+write) MSHR misses
system.cpu3.icache.demand_mshr_misses::total           53                       # number of demand (read+write) MSHR misses
system.cpu3.icache.overall_mshr_misses::cpu3.inst           53                       # number of overall MSHR misses
system.cpu3.icache.overall_mshr_misses::total           53                       # number of overall MSHR misses
system.cpu3.icache.ReadReq_mshr_miss_latency::cpu3.inst      3483500                       # number of ReadReq MSHR miss cycles
system.cpu3.icache.ReadReq_mshr_miss_latency::total      3483500                       # number of ReadReq MSHR miss cycles
system.cpu3.icache.demand_mshr_miss_latency::cpu3.inst      3483500                       # number of demand (read+write) MSHR miss cycles
system.cpu3.icache.demand_mshr_miss_latency::total      3483500                       # number of demand (read+write) MSHR miss cycles
system.cpu3.icache.overall_mshr_miss_latency::cpu3.inst      3483500                       # number of overall MSHR miss cycles
system.cpu3.icache.overall_mshr_miss_latency::total      3483500                       # number of overall MSHR miss cycles
system.cpu3.icache.ReadReq_mshr_miss_rate::cpu3.inst     0.048270                       # mshr miss rate for ReadReq accesses
system.cpu3.icache.ReadReq_mshr_miss_rate::total     0.048270                       # mshr miss rate for ReadReq accesses
system.cpu3.icache.demand_mshr_miss_rate::cpu3.inst     0.048270                       # mshr miss rate for demand accesses
system.cpu3.icache.demand_mshr_miss_rate::total     0.048270                       # mshr miss rate for demand accesses
system.cpu3.icache.overall_mshr_miss_rate::cpu3.inst     0.048270                       # mshr miss rate for overall accesses
system.cpu3.icache.overall_mshr_miss_rate::total     0.048270                       # mshr miss rate for overall accesses
system.cpu3.icache.ReadReq_avg_mshr_miss_latency::cpu3.inst 65726.415094                       # average ReadReq mshr miss latency
system.cpu3.icache.ReadReq_avg_mshr_miss_latency::total 65726.415094                       # average ReadReq mshr miss latency
system.cpu3.icache.demand_avg_mshr_miss_latency::cpu3.inst 65726.415094                       # average overall mshr miss latency
system.cpu3.icache.demand_avg_mshr_miss_latency::total 65726.415094                       # average overall mshr miss latency
system.cpu3.icache.overall_avg_mshr_miss_latency::cpu3.inst 65726.415094                       # average overall mshr miss latency
system.cpu3.icache.overall_avg_mshr_miss_latency::total 65726.415094                       # average overall mshr miss latency
system.cpu3.icache.no_allocate_misses               0                       # Number of misses that were no-allocate
system.membus.trans_dist::ReadReq                1055                       # Transaction distribution
system.membus.trans_dist::ReadResp               1054                       # Transaction distribution
system.membus.trans_dist::Writeback                 5                       # Transaction distribution
system.membus.trans_dist::UpgradeReq               11                       # Transaction distribution
system.membus.trans_dist::SCUpgradeReq             10                       # Transaction distribution
system.membus.trans_dist::UpgradeResp              21                       # Transaction distribution
system.membus.trans_dist::ReadExReq               192                       # Transaction distribution
system.membus.trans_dist::ReadExResp              192                       # Transaction distribution
system.membus.pkt_count_system.cpu0.icache.mem_side::system.mem_ctrls.port         1197                       # Packet count per connected master and slave (bytes)
system.membus.pkt_count_system.cpu0.dcache.mem_side::system.mem_ctrls.port          668                       # Packet count per connected master and slave (bytes)
system.membus.pkt_count_system.cpu1.icache.mem_side::system.mem_ctrls.port          100                       # Packet count per connected master and slave (bytes)
system.membus.pkt_count_system.cpu1.dcache.mem_side::system.mem_ctrls.port           76                       # Packet count per connected master and slave (bytes)
system.membus.pkt_count_system.cpu2.icache.mem_side::system.mem_ctrls.port          116                       # Packet count per connected master and slave (bytes)
system.membus.pkt_count_system.cpu2.dcache.mem_side::system.mem_ctrls.port           75                       # Packet count per connected master and slave (bytes)
system.membus.pkt_count_system.cpu3.icache.mem_side::system.mem_ctrls.port          106                       # Packet count per connected master and slave (bytes)
system.membus.pkt_count_system.cpu3.dcache.mem_side::system.mem_ctrls.port           75                       # Packet count per connected master and slave (bytes)
system.membus.pkt_count::total                   2413                       # Packet count per connected master and slave (bytes)
system.membus.pkt_size_system.cpu0.icache.mem_side::system.mem_ctrls.port        38272                       # Cumulative packet size per connected master and slave (bytes)
system.membus.pkt_size_system.cpu0.dcache.mem_side::system.mem_ctrls.port        20992                       # Cumulative packet size per connected master and slave (bytes)
system.membus.pkt_size_system.cpu1.icache.mem_side::system.mem_ctrls.port         3200                       # Cumulative packet size per connected master and slave (bytes)
system.membus.pkt_size_system.cpu1.dcache.mem_side::system.mem_ctrls.port         1024                       # Cumulative packet size per connected master and slave (bytes)
system.membus.pkt_size_system.cpu2.icache.mem_side::system.mem_ctrls.port         3712                       # Cumulative packet size per connected master and slave (bytes)
system.membus.pkt_size_system.cpu2.dcache.mem_side::system.mem_ctrls.port         1088                       # Cumulative packet size per connected master and slave (bytes)
system.membus.pkt_size_system.cpu3.icache.mem_side::system.mem_ctrls.port         3392                       # Cumulative packet size per connected master and slave (bytes)
system.membus.pkt_size_system.cpu3.dcache.mem_side::system.mem_ctrls.port         1088                       # Cumulative packet size per connected master and slave (bytes)
system.membus.pkt_size::total                   72768                       # Cumulative packet size per connected master and slave (bytes)
system.membus.snoops                              127                       # Total snoops (count)
system.membus.snoop_fanout::samples              1273                       # Request fanout histogram
system.membus.snoop_fanout::mean                    7                       # Request fanout histogram
system.membus.snoop_fanout::stdev                   0                       # Request fanout histogram
system.membus.snoop_fanout::underflows              0      0.00%      0.00% # Request fanout histogram
system.membus.snoop_fanout::0                       0      0.00%      0.00% # Request fanout histogram
system.membus.snoop_fanout::1                       0      0.00%      0.00% # Request fanout histogram
system.membus.snoop_fanout::2                       0      0.00%      0.00% # Request fanout histogram
system.membus.snoop_fanout::3                       0      0.00%      0.00% # Request fanout histogram
system.membus.snoop_fanout::4                       0      0.00%      0.00% # Request fanout histogram
system.membus.snoop_fanout::5                       0      0.00%      0.00% # Request fanout histogram
system.membus.snoop_fanout::6                       0      0.00%      0.00% # Request fanout histogram
system.membus.snoop_fanout::7                    1273    100.00%    100.00% # Request fanout histogram
system.membus.snoop_fanout::8                       0      0.00%    100.00% # Request fanout histogram
system.membus.snoop_fanout::overflows               0      0.00%    100.00% # Request fanout histogram
system.membus.snoop_fanout::min_value               7                       # Request fanout histogram
system.membus.snoop_fanout::max_value               7                       # Request fanout histogram
system.membus.snoop_fanout::total                1273                       # Request fanout histogram
system.membus.reqLayer0.occupancy             1567500                       # Layer occupancy (ticks)
system.membus.reqLayer0.utilization               4.3                       # Layer utilization (%)
system.membus.respLayer1.occupancy            3177750                       # Layer occupancy (ticks)
system.membus.respLayer1.utilization              8.8                       # Layer utilization (%)
system.membus.respLayer2.occupancy            1763243                       # Layer occupancy (ticks)
system.membus.respLayer2.utilization              4.9                       # Layer utilization (%)
system.membus.respLayer5.occupancy             269250                       # Layer occupancy (ticks)
system.membus.respLayer5.utilization              0.7                       # Layer utilization (%)
system.membus.respLayer6.occupancy             292499                       # Layer occupancy (ticks)
system.membus.respLayer6.utilization              0.8                       # Layer utilization (%)
system.membus.respLayer9.occupancy             307250                       # Layer occupancy (ticks)
system.membus.respLayer9.utilization              0.9                       # Layer utilization (%)
system.membus.respLayer10.occupancy            279749                       # Layer occupancy (ticks)
system.membus.respLayer10.utilization             0.8                       # Layer utilization (%)
system.membus.respLayer13.occupancy            282500                       # Layer occupancy (ticks)
system.membus.respLayer13.utilization             0.8                       # Layer utilization (%)
system.membus.respLayer14.occupancy            269249                       # Layer occupancy (ticks)
system.membus.respLayer14.utilization             0.7                       # Layer utilization (%)

---------- End Simulation Statistics   ----------
