
---------- Begin Simulation Statistics ----------
sim_seconds                                  0.000038                       # Number of seconds simulated
sim_ticks                                    37789500                       # Number of ticks simulated
final_tick                                   37789500                       # Number of ticks from beginning of simulation (restored from checkpoints and never reset)
sim_freq                                 1000000000000                       # Frequency of simulated ticks
host_inst_rate                                 187375                       # Simulator instruction rate (inst/s)
host_op_rate                                   196986                       # Simulator op (including micro ops) rate (op/s)
host_tick_rate                               30470108                       # Simulator tick rate (ticks/s)
host_mem_usage                                 679184                       # Number of bytes of host memory used
host_seconds                                     1.24                       # Real time elapsed on the host
sim_insts                                      232380                       # Number of instructions simulated
sim_ops                                        244302                       # Number of ops (including micro ops) simulated
system.voltage_domain.voltage                       1                       # Voltage in Volts
system.clk_domain.clock                          1000                       # Clock period in ticks
system.mem_ctrls.bytes_read::cpu0.inst          38336                       # Number of bytes read from this memory
system.mem_ctrls.bytes_read::cpu0.data          21568                       # Number of bytes read from this memory
system.mem_ctrls.bytes_read::cpu1.inst           3392                       # Number of bytes read from this memory
system.mem_ctrls.bytes_read::cpu1.data           1152                       # Number of bytes read from this memory
system.mem_ctrls.bytes_read::cpu2.inst           3392                       # Number of bytes read from this memory
system.mem_ctrls.bytes_read::cpu2.data           1152                       # Number of bytes read from this memory
system.mem_ctrls.bytes_read::cpu3.inst           3584                       # Number of bytes read from this memory
system.mem_ctrls.bytes_read::cpu3.data           1088                       # Number of bytes read from this memory
system.mem_ctrls.bytes_read::cpu4.inst           3456                       # Number of bytes read from this memory
system.mem_ctrls.bytes_read::cpu4.data           1216                       # Number of bytes read from this memory
system.mem_ctrls.bytes_read::cpu5.inst           3328                       # Number of bytes read from this memory
system.mem_ctrls.bytes_read::cpu5.data           1088                       # Number of bytes read from this memory
system.mem_ctrls.bytes_read::cpu6.inst           3392                       # Number of bytes read from this memory
system.mem_ctrls.bytes_read::cpu6.data           1088                       # Number of bytes read from this memory
system.mem_ctrls.bytes_read::cpu7.inst           3392                       # Number of bytes read from this memory
system.mem_ctrls.bytes_read::cpu7.data           1152                       # Number of bytes read from this memory
system.mem_ctrls.bytes_read::total              91776                       # Number of bytes read from this memory
system.mem_ctrls.bytes_inst_read::cpu0.inst        38336                       # Number of instructions bytes read from this memory
system.mem_ctrls.bytes_inst_read::cpu1.inst         3392                       # Number of instructions bytes read from this memory
system.mem_ctrls.bytes_inst_read::cpu2.inst         3392                       # Number of instructions bytes read from this memory
system.mem_ctrls.bytes_inst_read::cpu3.inst         3584                       # Number of instructions bytes read from this memory
system.mem_ctrls.bytes_inst_read::cpu4.inst         3456                       # Number of instructions bytes read from this memory
system.mem_ctrls.bytes_inst_read::cpu5.inst         3328                       # Number of instructions bytes read from this memory
system.mem_ctrls.bytes_inst_read::cpu6.inst         3392                       # Number of instructions bytes read from this memory
system.mem_ctrls.bytes_inst_read::cpu7.inst         3392                       # Number of instructions bytes read from this memory
system.mem_ctrls.bytes_inst_read::total         62272                       # Number of instructions bytes read from this memory
system.mem_ctrls.bytes_written::writebacks          640                       # Number of bytes written to this memory
system.mem_ctrls.bytes_written::total             640                       # Number of bytes written to this memory
system.mem_ctrls.num_reads::cpu0.inst             599                       # Number of read requests responded to by this memory
system.mem_ctrls.num_reads::cpu0.data             337                       # Number of read requests responded to by this memory
system.mem_ctrls.num_reads::cpu1.inst              53                       # Number of read requests responded to by this memory
system.mem_ctrls.num_reads::cpu1.data              18                       # Number of read requests responded to by this memory
system.mem_ctrls.num_reads::cpu2.inst              53                       # Number of read requests responded to by this memory
system.mem_ctrls.num_reads::cpu2.data              18                       # Number of read requests responded to by this memory
system.mem_ctrls.num_reads::cpu3.inst              56                       # Number of read requests responded to by this memory
system.mem_ctrls.num_reads::cpu3.data              17                       # Number of read requests responded to by this memory
system.mem_ctrls.num_reads::cpu4.inst              54                       # Number of read requests responded to by this memory
system.mem_ctrls.num_reads::cpu4.data              19                       # Number of read requests responded to by this memory
system.mem_ctrls.num_reads::cpu5.inst              52                       # Number of read requests responded to by this memory
system.mem_ctrls.num_reads::cpu5.data              17                       # Number of read requests responded to by this memory
system.mem_ctrls.num_reads::cpu6.inst              53                       # Number of read requests responded to by this memory
system.mem_ctrls.num_reads::cpu6.data              17                       # Number of read requests responded to by this memory
system.mem_ctrls.num_reads::cpu7.inst              53                       # Number of read requests responded to by this memory
system.mem_ctrls.num_reads::cpu7.data              18                       # Number of read requests responded to by this memory
system.mem_ctrls.num_reads::total                1434                       # Number of read requests responded to by this memory
system.mem_ctrls.num_writes::writebacks            10                       # Number of write requests responded to by this memory
system.mem_ctrls.num_writes::total                 10                       # Number of write requests responded to by this memory
system.mem_ctrls.bw_read::cpu0.inst        1014461689                       # Total read bandwidth from this memory (bytes/s)
system.mem_ctrls.bw_read::cpu0.data         570740550                       # Total read bandwidth from this memory (bytes/s)
system.mem_ctrls.bw_read::cpu1.inst          89760383                       # Total read bandwidth from this memory (bytes/s)
system.mem_ctrls.bw_read::cpu1.data          30484658                       # Total read bandwidth from this memory (bytes/s)
system.mem_ctrls.bw_read::cpu2.inst          89760383                       # Total read bandwidth from this memory (bytes/s)
system.mem_ctrls.bw_read::cpu2.data          30484658                       # Total read bandwidth from this memory (bytes/s)
system.mem_ctrls.bw_read::cpu3.inst          94841160                       # Total read bandwidth from this memory (bytes/s)
system.mem_ctrls.bw_read::cpu3.data          28791066                       # Total read bandwidth from this memory (bytes/s)
system.mem_ctrls.bw_read::cpu4.inst          91453975                       # Total read bandwidth from this memory (bytes/s)
system.mem_ctrls.bw_read::cpu4.data          32178251                       # Total read bandwidth from this memory (bytes/s)
system.mem_ctrls.bw_read::cpu5.inst          88066791                       # Total read bandwidth from this memory (bytes/s)
system.mem_ctrls.bw_read::cpu5.data          28791066                       # Total read bandwidth from this memory (bytes/s)
system.mem_ctrls.bw_read::cpu6.inst          89760383                       # Total read bandwidth from this memory (bytes/s)
system.mem_ctrls.bw_read::cpu6.data          28791066                       # Total read bandwidth from this memory (bytes/s)
system.mem_ctrls.bw_read::cpu7.inst          89760383                       # Total read bandwidth from this memory (bytes/s)
system.mem_ctrls.bw_read::cpu7.data          30484658                       # Total read bandwidth from this memory (bytes/s)
system.mem_ctrls.bw_read::total            2428611122                       # Total read bandwidth from this memory (bytes/s)
system.mem_ctrls.bw_inst_read::cpu0.inst   1014461689                       # Instruction read bandwidth from this memory (bytes/s)
system.mem_ctrls.bw_inst_read::cpu1.inst     89760383                       # Instruction read bandwidth from this memory (bytes/s)
system.mem_ctrls.bw_inst_read::cpu2.inst     89760383                       # Instruction read bandwidth from this memory (bytes/s)
system.mem_ctrls.bw_inst_read::cpu3.inst     94841160                       # Instruction read bandwidth from this memory (bytes/s)
system.mem_ctrls.bw_inst_read::cpu4.inst     91453975                       # Instruction read bandwidth from this memory (bytes/s)
system.mem_ctrls.bw_inst_read::cpu5.inst     88066791                       # Instruction read bandwidth from this memory (bytes/s)
system.mem_ctrls.bw_inst_read::cpu6.inst     89760383                       # Instruction read bandwidth from this memory (bytes/s)
system.mem_ctrls.bw_inst_read::cpu7.inst     89760383                       # Instruction read bandwidth from this memory (bytes/s)
system.mem_ctrls.bw_inst_read::total       1647865148                       # Instruction read bandwidth from this memory (bytes/s)
system.mem_ctrls.bw_write::writebacks        16935921                       # Write bandwidth from this memory (bytes/s)
system.mem_ctrls.bw_write::total             16935921                       # Write bandwidth from this memory (bytes/s)
system.mem_ctrls.bw_total::writebacks        16935921                       # Total bandwidth to/from this memory (bytes/s)
system.mem_ctrls.bw_total::cpu0.inst       1014461689                       # Total bandwidth to/from this memory (bytes/s)
system.mem_ctrls.bw_total::cpu0.data        570740550                       # Total bandwidth to/from this memory (bytes/s)
system.mem_ctrls.bw_total::cpu1.inst         89760383                       # Total bandwidth to/from this memory (bytes/s)
system.mem_ctrls.bw_total::cpu1.data         30484658                       # Total bandwidth to/from this memory (bytes/s)
system.mem_ctrls.bw_total::cpu2.inst         89760383                       # Total bandwidth to/from this memory (bytes/s)
system.mem_ctrls.bw_total::cpu2.data         30484658                       # Total bandwidth to/from this memory (bytes/s)
system.mem_ctrls.bw_total::cpu3.inst         94841160                       # Total bandwidth to/from this memory (bytes/s)
system.mem_ctrls.bw_total::cpu3.data         28791066                       # Total bandwidth to/from this memory (bytes/s)
system.mem_ctrls.bw_total::cpu4.inst         91453975                       # Total bandwidth to/from this memory (bytes/s)
system.mem_ctrls.bw_total::cpu4.data         32178251                       # Total bandwidth to/from this memory (bytes/s)
system.mem_ctrls.bw_total::cpu5.inst         88066791                       # Total bandwidth to/from this memory (bytes/s)
system.mem_ctrls.bw_total::cpu5.data         28791066                       # Total bandwidth to/from this memory (bytes/s)
system.mem_ctrls.bw_total::cpu6.inst         89760383                       # Total bandwidth to/from this memory (bytes/s)
system.mem_ctrls.bw_total::cpu6.data         28791066                       # Total bandwidth to/from this memory (bytes/s)
system.mem_ctrls.bw_total::cpu7.inst         89760383                       # Total bandwidth to/from this memory (bytes/s)
system.mem_ctrls.bw_total::cpu7.data         30484658                       # Total bandwidth to/from this memory (bytes/s)
system.mem_ctrls.bw_total::total           2445547043                       # Total bandwidth to/from this memory (bytes/s)
system.mem_ctrls.readReqs                        1435                       # Number of read requests accepted
system.mem_ctrls.writeReqs                         10                       # Number of write requests accepted
system.mem_ctrls.readBursts                      1435                       # Number of DRAM read bursts, including those serviced by the write queue
system.mem_ctrls.writeBursts                       10                       # Number of DRAM write bursts, including those merged in the write queue
system.mem_ctrls.bytesReadDRAM                  90752                       # Total number of bytes read from DRAM
system.mem_ctrls.bytesReadWrQ                    1088                       # Total number of bytes read from write queue
system.mem_ctrls.bytesWritten                       0                       # Total number of bytes written to DRAM
system.mem_ctrls.bytesReadSys                   91840                       # Total read bytes from the system interface side
system.mem_ctrls.bytesWrittenSys                  640                       # Total written bytes from the system interface side
system.mem_ctrls.servicedByWrQ                     17                       # Number of DRAM read bursts serviced by the write queue
system.mem_ctrls.mergedWrBursts                     1                       # Number of DRAM write bursts merged with an existing one
system.mem_ctrls.neitherReadNorWriteReqs           11                       # Number of requests that are neither read nor write
system.mem_ctrls.perBankRdBursts::0               201                       # Per bank write bursts
system.mem_ctrls.perBankRdBursts::1               361                       # Per bank write bursts
system.mem_ctrls.perBankRdBursts::2               222                       # Per bank write bursts
system.mem_ctrls.perBankRdBursts::3               180                       # Per bank write bursts
system.mem_ctrls.perBankRdBursts::4                50                       # Per bank write bursts
system.mem_ctrls.perBankRdBursts::5                49                       # Per bank write bursts
system.mem_ctrls.perBankRdBursts::6               125                       # Per bank write bursts
system.mem_ctrls.perBankRdBursts::7                33                       # Per bank write bursts
system.mem_ctrls.perBankRdBursts::8                14                       # Per bank write bursts
system.mem_ctrls.perBankRdBursts::9                10                       # Per bank write bursts
system.mem_ctrls.perBankRdBursts::10                0                       # Per bank write bursts
system.mem_ctrls.perBankRdBursts::11               14                       # Per bank write bursts
system.mem_ctrls.perBankRdBursts::12                9                       # Per bank write bursts
system.mem_ctrls.perBankRdBursts::13               38                       # Per bank write bursts
system.mem_ctrls.perBankRdBursts::14               40                       # Per bank write bursts
system.mem_ctrls.perBankRdBursts::15               72                       # Per bank write bursts
system.mem_ctrls.perBankWrBursts::0                 0                       # Per bank write bursts
system.mem_ctrls.perBankWrBursts::1                 0                       # Per bank write bursts
system.mem_ctrls.perBankWrBursts::2                 0                       # Per bank write bursts
system.mem_ctrls.perBankWrBursts::3                 0                       # Per bank write bursts
system.mem_ctrls.perBankWrBursts::4                 0                       # Per bank write bursts
system.mem_ctrls.perBankWrBursts::5                 0                       # Per bank write bursts
system.mem_ctrls.perBankWrBursts::6                 0                       # Per bank write bursts
system.mem_ctrls.perBankWrBursts::7                 0                       # Per bank write bursts
system.mem_ctrls.perBankWrBursts::8                 0                       # Per bank write bursts
system.mem_ctrls.perBankWrBursts::9                 0                       # Per bank write bursts
system.mem_ctrls.perBankWrBursts::10                0                       # Per bank write bursts
system.mem_ctrls.perBankWrBursts::11                0                       # Per bank write bursts
system.mem_ctrls.perBankWrBursts::12                0                       # Per bank write bursts
system.mem_ctrls.perBankWrBursts::13                0                       # Per bank write bursts
system.mem_ctrls.perBankWrBursts::14                0                       # Per bank write bursts
system.mem_ctrls.perBankWrBursts::15                0                       # Per bank write bursts
system.mem_ctrls.numRdRetry                         0                       # Number of times read queue was full causing retry
system.mem_ctrls.numWrRetry                         0                       # Number of times write queue was full causing retry
system.mem_ctrls.totGap                      37782000                       # Total gap between requests
system.mem_ctrls.readPktSize::0                     0                       # Read request sizes (log2)
system.mem_ctrls.readPktSize::1                     0                       # Read request sizes (log2)
system.mem_ctrls.readPktSize::2                     0                       # Read request sizes (log2)
system.mem_ctrls.readPktSize::3                     0                       # Read request sizes (log2)
system.mem_ctrls.readPktSize::4                     0                       # Read request sizes (log2)
system.mem_ctrls.readPktSize::5                     0                       # Read request sizes (log2)
system.mem_ctrls.readPktSize::6                  1435                       # Read request sizes (log2)
system.mem_ctrls.writePktSize::0                    0                       # Write request sizes (log2)
system.mem_ctrls.writePktSize::1                    0                       # Write request sizes (log2)
system.mem_ctrls.writePktSize::2                    0                       # Write request sizes (log2)
system.mem_ctrls.writePktSize::3                    0                       # Write request sizes (log2)
system.mem_ctrls.writePktSize::4                    0                       # Write request sizes (log2)
system.mem_ctrls.writePktSize::5                    0                       # Write request sizes (log2)
system.mem_ctrls.writePktSize::6                   10                       # Write request sizes (log2)
system.mem_ctrls.rdQLenPdf::0                     486                       # What read queue length does an incoming req see
system.mem_ctrls.rdQLenPdf::1                     322                       # What read queue length does an incoming req see
system.mem_ctrls.rdQLenPdf::2                     131                       # What read queue length does an incoming req see
system.mem_ctrls.rdQLenPdf::3                      73                       # What read queue length does an incoming req see
system.mem_ctrls.rdQLenPdf::4                      57                       # What read queue length does an incoming req see
system.mem_ctrls.rdQLenPdf::5                      61                       # What read queue length does an incoming req see
system.mem_ctrls.rdQLenPdf::6                      46                       # What read queue length does an incoming req see
system.mem_ctrls.rdQLenPdf::7                      53                       # What read queue length does an incoming req see
system.mem_ctrls.rdQLenPdf::8                      48                       # What read queue length does an incoming req see
system.mem_ctrls.rdQLenPdf::9                      40                       # What read queue length does an incoming req see
system.mem_ctrls.rdQLenPdf::10                     28                       # What read queue length does an incoming req see
system.mem_ctrls.rdQLenPdf::11                     26                       # What read queue length does an incoming req see
system.mem_ctrls.rdQLenPdf::12                     17                       # What read queue length does an incoming req see
system.mem_ctrls.rdQLenPdf::13                     11                       # What read queue length does an incoming req see
system.mem_ctrls.rdQLenPdf::14                      8                       # What read queue length does an incoming req see
system.mem_ctrls.rdQLenPdf::15                      6                       # What read queue length does an incoming req see
system.mem_ctrls.rdQLenPdf::16                      2                       # What read queue length does an incoming req see
system.mem_ctrls.rdQLenPdf::17                      2                       # What read queue length does an incoming req see
system.mem_ctrls.rdQLenPdf::18                      1                       # What read queue length does an incoming req see
system.mem_ctrls.rdQLenPdf::19                      0                       # What read queue length does an incoming req see
system.mem_ctrls.rdQLenPdf::20                      0                       # What read queue length does an incoming req see
system.mem_ctrls.rdQLenPdf::21                      0                       # What read queue length does an incoming req see
system.mem_ctrls.rdQLenPdf::22                      0                       # What read queue length does an incoming req see
system.mem_ctrls.rdQLenPdf::23                      0                       # What read queue length does an incoming req see
system.mem_ctrls.rdQLenPdf::24                      0                       # What read queue length does an incoming req see
system.mem_ctrls.rdQLenPdf::25                      0                       # What read queue length does an incoming req see
system.mem_ctrls.rdQLenPdf::26                      0                       # What read queue length does an incoming req see
system.mem_ctrls.rdQLenPdf::27                      0                       # What read queue length does an incoming req see
system.mem_ctrls.rdQLenPdf::28                      0                       # What read queue length does an incoming req see
system.mem_ctrls.rdQLenPdf::29                      0                       # What read queue length does an incoming req see
system.mem_ctrls.rdQLenPdf::30                      0                       # What read queue length does an incoming req see
system.mem_ctrls.rdQLenPdf::31                      0                       # What read queue length does an incoming req see
system.mem_ctrls.wrQLenPdf::0                       1                       # What write queue length does an incoming req see
system.mem_ctrls.wrQLenPdf::1                       1                       # What write queue length does an incoming req see
system.mem_ctrls.wrQLenPdf::2                       1                       # What write queue length does an incoming req see
system.mem_ctrls.wrQLenPdf::3                       1                       # What write queue length does an incoming req see
system.mem_ctrls.wrQLenPdf::4                       1                       # What write queue length does an incoming req see
system.mem_ctrls.wrQLenPdf::5                       1                       # What write queue length does an incoming req see
system.mem_ctrls.wrQLenPdf::6                       1                       # What write queue length does an incoming req see
system.mem_ctrls.wrQLenPdf::7                       1                       # What write queue length does an incoming req see
system.mem_ctrls.wrQLenPdf::8                       1                       # What write queue length does an incoming req see
system.mem_ctrls.wrQLenPdf::9                       0                       # What write queue length does an incoming req see
system.mem_ctrls.wrQLenPdf::10                      0                       # What write queue length does an incoming req see
system.mem_ctrls.wrQLenPdf::11                      0                       # What write queue length does an incoming req see
system.mem_ctrls.wrQLenPdf::12                      0                       # What write queue length does an incoming req see
system.mem_ctrls.wrQLenPdf::13                      0                       # What write queue length does an incoming req see
system.mem_ctrls.wrQLenPdf::14                      0                       # What write queue length does an incoming req see
system.mem_ctrls.wrQLenPdf::15                      0                       # What write queue length does an incoming req see
system.mem_ctrls.wrQLenPdf::16                      0                       # What write queue length does an incoming req see
system.mem_ctrls.wrQLenPdf::17                      0                       # What write queue length does an incoming req see
system.mem_ctrls.wrQLenPdf::18                      0                       # What write queue length does an incoming req see
system.mem_ctrls.wrQLenPdf::19                      0                       # What write queue length does an incoming req see
system.mem_ctrls.wrQLenPdf::20                      0                       # What write queue length does an incoming req see
system.mem_ctrls.wrQLenPdf::21                      0                       # What write queue length does an incoming req see
system.mem_ctrls.wrQLenPdf::22                      0                       # What write queue length does an incoming req see
system.mem_ctrls.wrQLenPdf::23                      0                       # What write queue length does an incoming req see
system.mem_ctrls.wrQLenPdf::24                      0                       # What write queue length does an incoming req see
system.mem_ctrls.wrQLenPdf::25                      0                       # What write queue length does an incoming req see
system.mem_ctrls.wrQLenPdf::26                      0                       # What write queue length does an incoming req see
system.mem_ctrls.wrQLenPdf::27                      0                       # What write queue length does an incoming req see
system.mem_ctrls.wrQLenPdf::28                      0                       # What write queue length does an incoming req see
system.mem_ctrls.wrQLenPdf::29                      0                       # What write queue length does an incoming req see
system.mem_ctrls.wrQLenPdf::30                      0                       # What write queue length does an incoming req see
system.mem_ctrls.wrQLenPdf::31                      0                       # What write queue length does an incoming req see
system.mem_ctrls.wrQLenPdf::32                      0                       # What write queue length does an incoming req see
system.mem_ctrls.wrQLenPdf::33                      0                       # What write queue length does an incoming req see
system.mem_ctrls.wrQLenPdf::34                      0                       # What write queue length does an incoming req see
system.mem_ctrls.wrQLenPdf::35                      0                       # What write queue length does an incoming req see
system.mem_ctrls.wrQLenPdf::36                      0                       # What write queue length does an incoming req see
system.mem_ctrls.wrQLenPdf::37                      0                       # What write queue length does an incoming req see
system.mem_ctrls.wrQLenPdf::38                      0                       # What write queue length does an incoming req see
system.mem_ctrls.wrQLenPdf::39                      0                       # What write queue length does an incoming req see
system.mem_ctrls.wrQLenPdf::40                      0                       # What write queue length does an incoming req see
system.mem_ctrls.wrQLenPdf::41                      0                       # What write queue length does an incoming req see
system.mem_ctrls.wrQLenPdf::42                      0                       # What write queue length does an incoming req see
system.mem_ctrls.wrQLenPdf::43                      0                       # What write queue length does an incoming req see
system.mem_ctrls.wrQLenPdf::44                      0                       # What write queue length does an incoming req see
system.mem_ctrls.wrQLenPdf::45                      0                       # What write queue length does an incoming req see
system.mem_ctrls.wrQLenPdf::46                      0                       # What write queue length does an incoming req see
system.mem_ctrls.wrQLenPdf::47                      0                       # What write queue length does an incoming req see
system.mem_ctrls.wrQLenPdf::48                      0                       # What write queue length does an incoming req see
system.mem_ctrls.wrQLenPdf::49                      0                       # What write queue length does an incoming req see
system.mem_ctrls.wrQLenPdf::50                      0                       # What write queue length does an incoming req see
system.mem_ctrls.wrQLenPdf::51                      0                       # What write queue length does an incoming req see
system.mem_ctrls.wrQLenPdf::52                      0                       # What write queue length does an incoming req see
system.mem_ctrls.wrQLenPdf::53                      0                       # What write queue length does an incoming req see
system.mem_ctrls.wrQLenPdf::54                      0                       # What write queue length does an incoming req see
system.mem_ctrls.wrQLenPdf::55                      0                       # What write queue length does an incoming req see
system.mem_ctrls.wrQLenPdf::56                      0                       # What write queue length does an incoming req see
system.mem_ctrls.wrQLenPdf::57                      0                       # What write queue length does an incoming req see
system.mem_ctrls.wrQLenPdf::58                      0                       # What write queue length does an incoming req see
system.mem_ctrls.wrQLenPdf::59                      0                       # What write queue length does an incoming req see
system.mem_ctrls.wrQLenPdf::60                      0                       # What write queue length does an incoming req see
system.mem_ctrls.wrQLenPdf::61                      0                       # What write queue length does an incoming req see
system.mem_ctrls.wrQLenPdf::62                      0                       # What write queue length does an incoming req see
system.mem_ctrls.wrQLenPdf::63                      0                       # What write queue length does an incoming req see
system.mem_ctrls.bytesPerActivate::samples          281                       # Bytes accessed per row activation
system.mem_ctrls.bytesPerActivate::mean    313.850534                       # Bytes accessed per row activation
system.mem_ctrls.bytesPerActivate::gmean   177.505930                       # Bytes accessed per row activation
system.mem_ctrls.bytesPerActivate::stdev   338.016387                       # Bytes accessed per row activation
system.mem_ctrls.bytesPerActivate::0-127          121     43.06%     43.06% # Bytes accessed per row activation
system.mem_ctrls.bytesPerActivate::128-255           53     18.86%     61.92% # Bytes accessed per row activation
system.mem_ctrls.bytesPerActivate::256-383           20      7.12%     69.04% # Bytes accessed per row activation
system.mem_ctrls.bytesPerActivate::384-511           19      6.76%     75.80% # Bytes accessed per row activation
system.mem_ctrls.bytesPerActivate::512-639           13      4.63%     80.43% # Bytes accessed per row activation
system.mem_ctrls.bytesPerActivate::640-767            8      2.85%     83.27% # Bytes accessed per row activation
system.mem_ctrls.bytesPerActivate::768-895            9      3.20%     86.48% # Bytes accessed per row activation
system.mem_ctrls.bytesPerActivate::896-1023            3      1.07%     87.54% # Bytes accessed per row activation
system.mem_ctrls.bytesPerActivate::1024-1151           35     12.46%    100.00% # Bytes accessed per row activation
system.mem_ctrls.bytesPerActivate::total          281                       # Bytes accessed per row activation
system.mem_ctrls.totQLat                     32999750                       # Total ticks spent queuing
system.mem_ctrls.totMemAccLat                59587250                       # Total ticks spent from burst creation until serviced by the DRAM
system.mem_ctrls.totBusLat                    7090000                       # Total ticks spent in databus transfers
system.mem_ctrls.avgQLat                     23272.04                       # Average queueing delay per DRAM burst
system.mem_ctrls.avgBusLat                    5000.00                       # Average bus latency per DRAM burst
system.mem_ctrls.avgMemAccLat                42022.04                       # Average memory access latency per DRAM burst
system.mem_ctrls.avgRdBW                      2401.51                       # Average DRAM read bandwidth in MiByte/s
system.mem_ctrls.avgWrBW                         0.00                       # Average achieved write bandwidth in MiByte/s
system.mem_ctrls.avgRdBWSys                   2430.30                       # Average system read bandwidth in MiByte/s
system.mem_ctrls.avgWrBWSys                     16.94                       # Average system write bandwidth in MiByte/s
system.mem_ctrls.peakBW                      12800.00                       # Theoretical peak bandwidth in MiByte/s
system.mem_ctrls.busUtil                        18.76                       # Data bus utilization in percentage
system.mem_ctrls.busUtilRead                    18.76                       # Data bus utilization in percentage for reads
system.mem_ctrls.busUtilWrite                    0.00                       # Data bus utilization in percentage for writes
system.mem_ctrls.avgRdQLen                       2.62                       # Average read queue length when enqueuing
system.mem_ctrls.avgWrQLen                       2.03                       # Average write queue length when enqueuing
system.mem_ctrls.readRowHits                     1125                       # Number of row buffer hits during reads
system.mem_ctrls.writeRowHits                       0                       # Number of row buffer hits during writes
system.mem_ctrls.readRowHitRate                 79.34                       # Row buffer hit rate for reads
system.mem_ctrls.writeRowHitRate                 0.00                       # Row buffer hit rate for writes
system.mem_ctrls.avgGap                      26146.71                       # Average gap between requests
system.mem_ctrls.pageHitRate                    78.84                       # Row buffer hit rate, read and write combined
system.mem_ctrls_0.actEnergy                  1368360                       # Energy for activate commands per rank (pJ)
system.mem_ctrls_0.preEnergy                   746625                       # Energy for precharge commands per rank (pJ)
system.mem_ctrls_0.readEnergy                 5998200                       # Energy for read commands per rank (pJ)
system.mem_ctrls_0.writeEnergy                      0                       # Energy for write commands per rank (pJ)
system.mem_ctrls_0.refreshEnergy              2034240                       # Energy for refresh commands per rank (pJ)
system.mem_ctrls_0.actBackEnergy             21445965                       # Energy for active background per rank (pJ)
system.mem_ctrls_0.preBackEnergy                58500                       # Energy for precharge background per rank (pJ)
system.mem_ctrls_0.totalEnergy               31651890                       # Total energy per rank (pJ)
system.mem_ctrls_0.averagePower           1006.379397                       # Core power per rank (mW)
system.mem_ctrls_0.memoryStateTime::IDLE         1000                       # Time in different power states
system.mem_ctrls_0.memoryStateTime::REF       1040000                       # Time in different power states
system.mem_ctrls_0.memoryStateTime::PRE_PDN            0                       # Time in different power states
system.mem_ctrls_0.memoryStateTime::ACT      30424000                       # Time in different power states
system.mem_ctrls_0.memoryStateTime::ACT_PDN            0                       # Time in different power states
system.mem_ctrls_1.actEnergy                   196560                       # Energy for activate commands per rank (pJ)
system.mem_ctrls_1.preEnergy                   107250                       # Energy for precharge commands per rank (pJ)
system.mem_ctrls_1.readEnergy                 1115400                       # Energy for read commands per rank (pJ)
system.mem_ctrls_1.writeEnergy                      0                       # Energy for write commands per rank (pJ)
system.mem_ctrls_1.refreshEnergy              2034240                       # Energy for refresh commands per rank (pJ)
system.mem_ctrls_1.actBackEnergy             20767950                       # Energy for active background per rank (pJ)
system.mem_ctrls_1.preBackEnergy               625500                       # Energy for precharge background per rank (pJ)
system.mem_ctrls_1.totalEnergy               24846900                       # Total energy per rank (pJ)
system.mem_ctrls_1.averagePower            791.176564                       # Core power per rank (mW)
system.mem_ctrls_1.memoryStateTime::IDLE      1166000                       # Time in different power states
system.mem_ctrls_1.memoryStateTime::REF       1040000                       # Time in different power states
system.mem_ctrls_1.memoryStateTime::PRE_PDN            0                       # Time in different power states
system.mem_ctrls_1.memoryStateTime::ACT      29432750                       # Time in different power states
system.mem_ctrls_1.memoryStateTime::ACT_PDN            0                       # Time in different power states
system.cpu0.branchPred.lookups                   9666                       # Number of BP lookups
system.cpu0.branchPred.condPredicted             7462                       # Number of conditional branches predicted
system.cpu0.branchPred.condIncorrect              925                       # Number of conditional branches incorrect
system.cpu0.branchPred.BTBLookups                6601                       # Number of BTB lookups
system.cpu0.branchPred.BTBHits                   3547                       # Number of BTB hits
system.cpu0.branchPred.BTBCorrect                   0                       # Number of correct BTB predictions (this stat may not work properly.
system.cpu0.branchPred.BTBHitPct            53.734283                       # BTB Hit Percentage
system.cpu0.branchPred.usedRAS                    872                       # Number of times the RAS was used to get a target.
system.cpu0.branchPred.RASInCorrect                13                       # Number of incorrect RAS predictions.
system.cpu_voltage_domain.voltage                   1                       # Voltage in Volts
system.cpu_clk_domain.clock                       500                       # Clock period in ticks
system.cpu0.dstage2_mmu.stage2_tlb.walker.walks            0                       # Table walker walks requested
system.cpu0.dstage2_mmu.stage2_tlb.walker.walkRequestOrigin_Requested::Data            0                       # Table walker requests started/completed, data/inst
system.cpu0.dstage2_mmu.stage2_tlb.walker.walkRequestOrigin_Requested::Inst            0                       # Table walker requests started/completed, data/inst
system.cpu0.dstage2_mmu.stage2_tlb.walker.walkRequestOrigin_Requested::total            0                       # Table walker requests started/completed, data/inst
system.cpu0.dstage2_mmu.stage2_tlb.walker.walkRequestOrigin_Completed::Data            0                       # Table walker requests started/completed, data/inst
system.cpu0.dstage2_mmu.stage2_tlb.walker.walkRequestOrigin_Completed::Inst            0                       # Table walker requests started/completed, data/inst
system.cpu0.dstage2_mmu.stage2_tlb.walker.walkRequestOrigin_Completed::total            0                       # Table walker requests started/completed, data/inst
system.cpu0.dstage2_mmu.stage2_tlb.walker.walkRequestOrigin::total            0                       # Table walker requests started/completed, data/inst
system.cpu0.dstage2_mmu.stage2_tlb.inst_hits            0                       # ITB inst hits
system.cpu0.dstage2_mmu.stage2_tlb.inst_misses            0                       # ITB inst misses
system.cpu0.dstage2_mmu.stage2_tlb.read_hits            0                       # DTB read hits
system.cpu0.dstage2_mmu.stage2_tlb.read_misses            0                       # DTB read misses
system.cpu0.dstage2_mmu.stage2_tlb.write_hits            0                       # DTB write hits
system.cpu0.dstage2_mmu.stage2_tlb.write_misses            0                       # DTB write misses
system.cpu0.dstage2_mmu.stage2_tlb.flush_tlb            0                       # Number of times complete TLB was flushed
system.cpu0.dstage2_mmu.stage2_tlb.flush_tlb_mva            0                       # Number of times TLB was flushed by MVA
system.cpu0.dstage2_mmu.stage2_tlb.flush_tlb_mva_asid            0                       # Number of times TLB was flushed by MVA & ASID
system.cpu0.dstage2_mmu.stage2_tlb.flush_tlb_asid            0                       # Number of times TLB was flushed by ASID
system.cpu0.dstage2_mmu.stage2_tlb.flush_entries            0                       # Number of entries that have been flushed from TLB
system.cpu0.dstage2_mmu.stage2_tlb.align_faults            0                       # Number of TLB faults due to alignment restrictions
system.cpu0.dstage2_mmu.stage2_tlb.prefetch_faults            0                       # Number of TLB faults due to prefetch
system.cpu0.dstage2_mmu.stage2_tlb.domain_faults            0                       # Number of TLB faults due to domain restrictions
system.cpu0.dstage2_mmu.stage2_tlb.perms_faults            0                       # Number of TLB faults due to permissions restrictions
system.cpu0.dstage2_mmu.stage2_tlb.read_accesses            0                       # DTB read accesses
system.cpu0.dstage2_mmu.stage2_tlb.write_accesses            0                       # DTB write accesses
system.cpu0.dstage2_mmu.stage2_tlb.inst_accesses            0                       # ITB inst accesses
system.cpu0.dstage2_mmu.stage2_tlb.hits             0                       # DTB hits
system.cpu0.dstage2_mmu.stage2_tlb.misses            0                       # DTB misses
system.cpu0.dstage2_mmu.stage2_tlb.accesses            0                       # DTB accesses
system.cpu0.dtb.walker.walks                        0                       # Table walker walks requested
system.cpu0.dtb.walker.walkRequestOrigin_Requested::Data            0                       # Table walker requests started/completed, data/inst
system.cpu0.dtb.walker.walkRequestOrigin_Requested::Inst            0                       # Table walker requests started/completed, data/inst
system.cpu0.dtb.walker.walkRequestOrigin_Requested::total            0                       # Table walker requests started/completed, data/inst
system.cpu0.dtb.walker.walkRequestOrigin_Completed::Data            0                       # Table walker requests started/completed, data/inst
system.cpu0.dtb.walker.walkRequestOrigin_Completed::Inst            0                       # Table walker requests started/completed, data/inst
system.cpu0.dtb.walker.walkRequestOrigin_Completed::total            0                       # Table walker requests started/completed, data/inst
system.cpu0.dtb.walker.walkRequestOrigin::total            0                       # Table walker requests started/completed, data/inst
system.cpu0.dtb.inst_hits                           0                       # ITB inst hits
system.cpu0.dtb.inst_misses                         0                       # ITB inst misses
system.cpu0.dtb.read_hits                           0                       # DTB read hits
system.cpu0.dtb.read_misses                         0                       # DTB read misses
system.cpu0.dtb.write_hits                          0                       # DTB write hits
system.cpu0.dtb.write_misses                        0                       # DTB write misses
system.cpu0.dtb.flush_tlb                           0                       # Number of times complete TLB was flushed
system.cpu0.dtb.flush_tlb_mva                       0                       # Number of times TLB was flushed by MVA
system.cpu0.dtb.flush_tlb_mva_asid                  0                       # Number of times TLB was flushed by MVA & ASID
system.cpu0.dtb.flush_tlb_asid                      0                       # Number of times TLB was flushed by ASID
system.cpu0.dtb.flush_entries                       0                       # Number of entries that have been flushed from TLB
system.cpu0.dtb.align_faults                        0                       # Number of TLB faults due to alignment restrictions
system.cpu0.dtb.prefetch_faults                     0                       # Number of TLB faults due to prefetch
system.cpu0.dtb.domain_faults                       0                       # Number of TLB faults due to domain restrictions
system.cpu0.dtb.perms_faults                        0                       # Number of TLB faults due to permissions restrictions
system.cpu0.dtb.read_accesses                       0                       # DTB read accesses
system.cpu0.dtb.write_accesses                      0                       # DTB write accesses
system.cpu0.dtb.inst_accesses                       0                       # ITB inst accesses
system.cpu0.dtb.hits                                0                       # DTB hits
system.cpu0.dtb.misses                              0                       # DTB misses
system.cpu0.dtb.accesses                            0                       # DTB accesses
system.cpu0.istage2_mmu.stage2_tlb.walker.walks            0                       # Table walker walks requested
system.cpu0.istage2_mmu.stage2_tlb.walker.walkRequestOrigin_Requested::Data            0                       # Table walker requests started/completed, data/inst
system.cpu0.istage2_mmu.stage2_tlb.walker.walkRequestOrigin_Requested::Inst            0                       # Table walker requests started/completed, data/inst
system.cpu0.istage2_mmu.stage2_tlb.walker.walkRequestOrigin_Requested::total            0                       # Table walker requests started/completed, data/inst
system.cpu0.istage2_mmu.stage2_tlb.walker.walkRequestOrigin_Completed::Data            0                       # Table walker requests started/completed, data/inst
system.cpu0.istage2_mmu.stage2_tlb.walker.walkRequestOrigin_Completed::Inst            0                       # Table walker requests started/completed, data/inst
system.cpu0.istage2_mmu.stage2_tlb.walker.walkRequestOrigin_Completed::total            0                       # Table walker requests started/completed, data/inst
system.cpu0.istage2_mmu.stage2_tlb.walker.walkRequestOrigin::total            0                       # Table walker requests started/completed, data/inst
system.cpu0.istage2_mmu.stage2_tlb.inst_hits            0                       # ITB inst hits
system.cpu0.istage2_mmu.stage2_tlb.inst_misses            0                       # ITB inst misses
system.cpu0.istage2_mmu.stage2_tlb.read_hits            0                       # DTB read hits
system.cpu0.istage2_mmu.stage2_tlb.read_misses            0                       # DTB read misses
system.cpu0.istage2_mmu.stage2_tlb.write_hits            0                       # DTB write hits
system.cpu0.istage2_mmu.stage2_tlb.write_misses            0                       # DTB write misses
system.cpu0.istage2_mmu.stage2_tlb.flush_tlb            0                       # Number of times complete TLB was flushed
system.cpu0.istage2_mmu.stage2_tlb.flush_tlb_mva            0                       # Number of times TLB was flushed by MVA
system.cpu0.istage2_mmu.stage2_tlb.flush_tlb_mva_asid            0                       # Number of times TLB was flushed by MVA & ASID
system.cpu0.istage2_mmu.stage2_tlb.flush_tlb_asid            0                       # Number of times TLB was flushed by ASID
system.cpu0.istage2_mmu.stage2_tlb.flush_entries            0                       # Number of entries that have been flushed from TLB
system.cpu0.istage2_mmu.stage2_tlb.align_faults            0                       # Number of TLB faults due to alignment restrictions
system.cpu0.istage2_mmu.stage2_tlb.prefetch_faults            0                       # Number of TLB faults due to prefetch
system.cpu0.istage2_mmu.stage2_tlb.domain_faults            0                       # Number of TLB faults due to domain restrictions
system.cpu0.istage2_mmu.stage2_tlb.perms_faults            0                       # Number of TLB faults due to permissions restrictions
system.cpu0.istage2_mmu.stage2_tlb.read_accesses            0                       # DTB read accesses
system.cpu0.istage2_mmu.stage2_tlb.write_accesses            0                       # DTB write accesses
system.cpu0.istage2_mmu.stage2_tlb.inst_accesses            0                       # ITB inst accesses
system.cpu0.istage2_mmu.stage2_tlb.hits             0                       # DTB hits
system.cpu0.istage2_mmu.stage2_tlb.misses            0                       # DTB misses
system.cpu0.istage2_mmu.stage2_tlb.accesses            0                       # DTB accesses
system.cpu0.itb.walker.walks                        0                       # Table walker walks requested
system.cpu0.itb.walker.walkRequestOrigin_Requested::Data            0                       # Table walker requests started/completed, data/inst
system.cpu0.itb.walker.walkRequestOrigin_Requested::Inst            0                       # Table walker requests started/completed, data/inst
system.cpu0.itb.walker.walkRequestOrigin_Requested::total            0                       # Table walker requests started/completed, data/inst
system.cpu0.itb.walker.walkRequestOrigin_Completed::Data            0                       # Table walker requests started/completed, data/inst
system.cpu0.itb.walker.walkRequestOrigin_Completed::Inst            0                       # Table walker requests started/completed, data/inst
system.cpu0.itb.walker.walkRequestOrigin_Completed::total            0                       # Table walker requests started/completed, data/inst
system.cpu0.itb.walker.walkRequestOrigin::total            0                       # Table walker requests started/completed, data/inst
system.cpu0.itb.inst_hits                           0                       # ITB inst hits
system.cpu0.itb.inst_misses                         0                       # ITB inst misses
system.cpu0.itb.read_hits                           0                       # DTB read hits
system.cpu0.itb.read_misses                         0                       # DTB read misses
system.cpu0.itb.write_hits                          0                       # DTB write hits
system.cpu0.itb.write_misses                        0                       # DTB write misses
system.cpu0.itb.flush_tlb                           0                       # Number of times complete TLB was flushed
system.cpu0.itb.flush_tlb_mva                       0                       # Number of times TLB was flushed by MVA
system.cpu0.itb.flush_tlb_mva_asid                  0                       # Number of times TLB was flushed by MVA & ASID
system.cpu0.itb.flush_tlb_asid                      0                       # Number of times TLB was flushed by ASID
system.cpu0.itb.flush_entries                       0                       # Number of entries that have been flushed from TLB
system.cpu0.itb.align_faults                        0                       # Number of TLB faults due to alignment restrictions
system.cpu0.itb.prefetch_faults                     0                       # Number of TLB faults due to prefetch
system.cpu0.itb.domain_faults                       0                       # Number of TLB faults due to domain restrictions
system.cpu0.itb.perms_faults                        0                       # Number of TLB faults due to permissions restrictions
system.cpu0.itb.read_accesses                       0                       # DTB read accesses
system.cpu0.itb.write_accesses                      0                       # DTB write accesses
system.cpu0.itb.inst_accesses                       0                       # ITB inst accesses
system.cpu0.itb.hits                                0                       # DTB hits
system.cpu0.itb.misses                              0                       # DTB misses
system.cpu0.itb.accesses                            0                       # DTB accesses
system.cpu0.workload.num_syscalls                 268                       # Number of system calls
system.cpu0.numCycles                           75580                       # number of cpu cycles simulated
system.cpu0.numWorkItemsStarted                     0                       # number of work items this cpu started
system.cpu0.numWorkItemsCompleted                   0                       # number of work items this cpu completed
system.cpu0.fetch.icacheStallCycles             18216                       # Number of cycles fetch is stalled on an Icache miss
system.cpu0.fetch.Insts                         47651                       # Number of instructions fetch has processed
system.cpu0.fetch.Branches                       9666                       # Number of branches that fetch encountered
system.cpu0.fetch.predictedBranches              4419                       # Number of branches that fetch has predicted taken
system.cpu0.fetch.Cycles                        22016                       # Number of cycles fetch has run and was not squashing or blocked
system.cpu0.fetch.SquashCycles                   2003                       # Number of cycles fetch has spent squashing
system.cpu0.fetch.MiscStallCycles                   1                       # Number of cycles fetch has spent waiting on interrupts, or bad addresses, or out of MSHRs
system.cpu0.fetch.PendingTrapStallCycles            1                       # Number of stall cycles due to pending traps
system.cpu0.fetch.CacheLines                     5336                       # Number of cache lines fetched
system.cpu0.fetch.IcacheSquashes                  612                       # Number of outstanding Icache misses that were squashed
system.cpu0.fetch.rateDist::samples             41235                       # Number of instructions fetched each cycle (Total)
system.cpu0.fetch.rateDist::mean             1.345216                       # Number of instructions fetched each cycle (Total)
system.cpu0.fetch.rateDist::stdev            2.758782                       # Number of instructions fetched each cycle (Total)
system.cpu0.fetch.rateDist::underflows              0      0.00%      0.00% # Number of instructions fetched each cycle (Total)
system.cpu0.fetch.rateDist::0                   31897     77.35%     77.35% # Number of instructions fetched each cycle (Total)
system.cpu0.fetch.rateDist::1                     699      1.70%     79.05% # Number of instructions fetched each cycle (Total)
system.cpu0.fetch.rateDist::2                     867      2.10%     81.15% # Number of instructions fetched each cycle (Total)
system.cpu0.fetch.rateDist::3                     643      1.56%     82.71% # Number of instructions fetched each cycle (Total)
system.cpu0.fetch.rateDist::4                     570      1.38%     84.09% # Number of instructions fetched each cycle (Total)
system.cpu0.fetch.rateDist::5                     502      1.22%     85.31% # Number of instructions fetched each cycle (Total)
system.cpu0.fetch.rateDist::6                     622      1.51%     86.82% # Number of instructions fetched each cycle (Total)
system.cpu0.fetch.rateDist::7                     894      2.17%     88.99% # Number of instructions fetched each cycle (Total)
system.cpu0.fetch.rateDist::8                    4541     11.01%    100.00% # Number of instructions fetched each cycle (Total)
system.cpu0.fetch.rateDist::overflows               0      0.00%    100.00% # Number of instructions fetched each cycle (Total)
system.cpu0.fetch.rateDist::min_value               0                       # Number of instructions fetched each cycle (Total)
system.cpu0.fetch.rateDist::max_value               8                       # Number of instructions fetched each cycle (Total)
system.cpu0.fetch.rateDist::total               41235                       # Number of instructions fetched each cycle (Total)
system.cpu0.fetch.branchRate                 0.127891                       # Number of branch fetches per cycle
system.cpu0.fetch.rate                       0.630471                       # Number of inst fetches per cycle
system.cpu0.decode.IdleCycles                   14371                       # Number of cycles decode is idle
system.cpu0.decode.BlockedCycles                18171                       # Number of cycles decode is blocked
system.cpu0.decode.RunCycles                     7284                       # Number of cycles decode is running
system.cpu0.decode.UnblockCycles                  707                       # Number of cycles decode is unblocking
system.cpu0.decode.SquashCycles                   702                       # Number of cycles decode is squashing
system.cpu0.decode.BranchResolved                 924                       # Number of times decode resolved a branch
system.cpu0.decode.BranchMispred                  311                       # Number of times decode detected a branch misprediction
system.cpu0.decode.DecodedInsts                 48484                       # Number of instructions handled by decode
system.cpu0.decode.SquashedInsts                 1119                       # Number of squashed instructions handled by decode
system.cpu0.rename.SquashCycles                   702                       # Number of cycles rename is squashing
system.cpu0.rename.IdleCycles                   15053                       # Number of cycles rename is idle
system.cpu0.rename.BlockCycles                   2387                       # Number of cycles rename is blocking
system.cpu0.rename.serializeStallCycles          9719                       # count of cycles rename stalled for serializing inst
system.cpu0.rename.RunCycles                     7263                       # Number of cycles rename is running
system.cpu0.rename.UnblockCycles                 6111                       # Number of cycles rename is unblocking
system.cpu0.rename.RenamedInsts                 46703                       # Number of instructions processed by rename
system.cpu0.rename.ROBFullEvents                    4                       # Number of times rename has blocked due to ROB full
system.cpu0.rename.IQFullEvents                   194                       # Number of times rename has blocked due to IQ full
system.cpu0.rename.LQFullEvents                   226                       # Number of times rename has blocked due to LQ full
system.cpu0.rename.SQFullEvents                  5426                       # Number of times rename has blocked due to SQ full
system.cpu0.rename.RenamedOperands              56790                       # Number of destination operands rename has renamed
system.cpu0.rename.RenameLookups               219960                       # Number of register rename lookups that rename has made
system.cpu0.rename.int_rename_lookups           57705                       # Number of integer rename lookups
system.cpu0.rename.fp_rename_lookups               22                       # Number of floating rename lookups
system.cpu0.rename.CommittedMaps                39053                       # Number of HB maps that are committed
system.cpu0.rename.UndoneMaps                   17737                       # Number of HB maps that are undone due to squashing
system.cpu0.rename.serializingInsts               139                       # count of serializing insts renamed
system.cpu0.rename.tempSerializingInsts           138                       # count of temporary serializing insts renamed
system.cpu0.rename.skidInsts                     3402                       # count of insts added to the skid buffer
system.cpu0.memDep0.insertedLoads                7178                       # Number of loads inserted to the mem dependence unit.
system.cpu0.memDep0.insertedStores               6139                       # Number of stores inserted to the mem dependence unit.
system.cpu0.memDep0.conflictingLoads              648                       # Number of conflicting loads.
system.cpu0.memDep0.conflictingStores             589                       # Number of conflicting stores.
system.cpu0.iq.iqInstsAdded                     43681                       # Number of instructions added to the IQ (excludes non-spec)
system.cpu0.iq.iqNonSpecInstsAdded                283                       # Number of non-speculative instructions added to the IQ
system.cpu0.iq.iqInstsIssued                    38436                       # Number of instructions issued
system.cpu0.iq.iqSquashedInstsIssued               81                       # Number of squashed instructions issued
system.cpu0.iq.iqSquashedInstsExamined          12626                       # Number of squashed instructions iterated over during squash; mainly for profiling
system.cpu0.iq.iqSquashedOperandsExamined        32767                       # Number of squashed operands that are examined and possibly removed from graph
system.cpu0.iq.iqSquashedNonSpecRemoved            70                       # Number of squashed non-spec instructions that were removed
system.cpu0.iq.issued_per_cycle::samples        41235                       # Number of insts issued each cycle
system.cpu0.iq.issued_per_cycle::mean        0.932121                       # Number of insts issued each cycle
system.cpu0.iq.issued_per_cycle::stdev       1.848135                       # Number of insts issued each cycle
system.cpu0.iq.issued_per_cycle::underflows            0      0.00%      0.00% # Number of insts issued each cycle
system.cpu0.iq.issued_per_cycle::0              29542     71.64%     71.64% # Number of insts issued each cycle
system.cpu0.iq.issued_per_cycle::1               3208      7.78%     79.42% # Number of insts issued each cycle
system.cpu0.iq.issued_per_cycle::2               2014      4.88%     84.31% # Number of insts issued each cycle
system.cpu0.iq.issued_per_cycle::3               1620      3.93%     88.24% # Number of insts issued each cycle
system.cpu0.iq.issued_per_cycle::4               1595      3.87%     92.10% # Number of insts issued each cycle
system.cpu0.iq.issued_per_cycle::5               1072      2.60%     94.70% # Number of insts issued each cycle
system.cpu0.iq.issued_per_cycle::6                903      2.19%     96.89% # Number of insts issued each cycle
system.cpu0.iq.issued_per_cycle::7               1066      2.59%     99.48% # Number of insts issued each cycle
system.cpu0.iq.issued_per_cycle::8                215      0.52%    100.00% # Number of insts issued each cycle
system.cpu0.iq.issued_per_cycle::overflows            0      0.00%    100.00% # Number of insts issued each cycle
system.cpu0.iq.issued_per_cycle::min_value            0                       # Number of insts issued each cycle
system.cpu0.iq.issued_per_cycle::max_value            8                       # Number of insts issued each cycle
system.cpu0.iq.issued_per_cycle::total          41235                       # Number of insts issued each cycle
system.cpu0.iq.fu_full::No_OpClass                  0      0.00%      0.00% # attempts to use FU when none available
system.cpu0.iq.fu_full::IntAlu                    659     58.42%     58.42% # attempts to use FU when none available
system.cpu0.iq.fu_full::IntMult                    25      2.22%     60.64% # attempts to use FU when none available
system.cpu0.iq.fu_full::IntDiv                      0      0.00%     60.64% # attempts to use FU when none available
system.cpu0.iq.fu_full::FloatAdd                    0      0.00%     60.64% # attempts to use FU when none available
system.cpu0.iq.fu_full::FloatCmp                    0      0.00%     60.64% # attempts to use FU when none available
system.cpu0.iq.fu_full::FloatCvt                    0      0.00%     60.64% # attempts to use FU when none available
system.cpu0.iq.fu_full::FloatMult                   0      0.00%     60.64% # attempts to use FU when none available
system.cpu0.iq.fu_full::FloatDiv                    0      0.00%     60.64% # attempts to use FU when none available
system.cpu0.iq.fu_full::FloatSqrt                   0      0.00%     60.64% # attempts to use FU when none available
system.cpu0.iq.fu_full::SimdAdd                     0      0.00%     60.64% # attempts to use FU when none available
system.cpu0.iq.fu_full::SimdAddAcc                  0      0.00%     60.64% # attempts to use FU when none available
system.cpu0.iq.fu_full::SimdAlu                     0      0.00%     60.64% # attempts to use FU when none available
system.cpu0.iq.fu_full::SimdCmp                     0      0.00%     60.64% # attempts to use FU when none available
system.cpu0.iq.fu_full::SimdCvt                     0      0.00%     60.64% # attempts to use FU when none available
system.cpu0.iq.fu_full::SimdMisc                    0      0.00%     60.64% # attempts to use FU when none available
system.cpu0.iq.fu_full::SimdMult                    0      0.00%     60.64% # attempts to use FU when none available
system.cpu0.iq.fu_full::SimdMultAcc                 0      0.00%     60.64% # attempts to use FU when none available
system.cpu0.iq.fu_full::SimdShift                   0      0.00%     60.64% # attempts to use FU when none available
system.cpu0.iq.fu_full::SimdShiftAcc                0      0.00%     60.64% # attempts to use FU when none available
system.cpu0.iq.fu_full::SimdSqrt                    0      0.00%     60.64% # attempts to use FU when none available
system.cpu0.iq.fu_full::SimdFloatAdd                0      0.00%     60.64% # attempts to use FU when none available
system.cpu0.iq.fu_full::SimdFloatAlu                0      0.00%     60.64% # attempts to use FU when none available
system.cpu0.iq.fu_full::SimdFloatCmp                0      0.00%     60.64% # attempts to use FU when none available
system.cpu0.iq.fu_full::SimdFloatCvt                0      0.00%     60.64% # attempts to use FU when none available
system.cpu0.iq.fu_full::SimdFloatDiv                0      0.00%     60.64% # attempts to use FU when none available
system.cpu0.iq.fu_full::SimdFloatMisc               0      0.00%     60.64% # attempts to use FU when none available
system.cpu0.iq.fu_full::SimdFloatMult               0      0.00%     60.64% # attempts to use FU when none available
system.cpu0.iq.fu_full::SimdFloatMultAcc            0      0.00%     60.64% # attempts to use FU when none available
system.cpu0.iq.fu_full::SimdFloatSqrt               0      0.00%     60.64% # attempts to use FU when none available
system.cpu0.iq.fu_full::MemRead                   211     18.71%     79.34% # attempts to use FU when none available
system.cpu0.iq.fu_full::MemWrite                  233     20.66%    100.00% # attempts to use FU when none available
system.cpu0.iq.fu_full::IprAccess                   0      0.00%    100.00% # attempts to use FU when none available
system.cpu0.iq.fu_full::InstPrefetch                0      0.00%    100.00% # attempts to use FU when none available
system.cpu0.iq.FU_type_0::No_OpClass                0      0.00%      0.00% # Type of FU issued
system.cpu0.iq.FU_type_0::IntAlu                25989     67.62%     67.62% # Type of FU issued
system.cpu0.iq.FU_type_0::IntMult                 361      0.94%     68.56% # Type of FU issued
system.cpu0.iq.FU_type_0::IntDiv                    0      0.00%     68.56% # Type of FU issued
system.cpu0.iq.FU_type_0::FloatAdd                  0      0.00%     68.56% # Type of FU issued
system.cpu0.iq.FU_type_0::FloatCmp                  0      0.00%     68.56% # Type of FU issued
system.cpu0.iq.FU_type_0::FloatCvt                  0      0.00%     68.56% # Type of FU issued
system.cpu0.iq.FU_type_0::FloatMult                 0      0.00%     68.56% # Type of FU issued
system.cpu0.iq.FU_type_0::FloatDiv                  0      0.00%     68.56% # Type of FU issued
system.cpu0.iq.FU_type_0::FloatSqrt                 0      0.00%     68.56% # Type of FU issued
system.cpu0.iq.FU_type_0::SimdAdd                   0      0.00%     68.56% # Type of FU issued
system.cpu0.iq.FU_type_0::SimdAddAcc                0      0.00%     68.56% # Type of FU issued
system.cpu0.iq.FU_type_0::SimdAlu                   0      0.00%     68.56% # Type of FU issued
system.cpu0.iq.FU_type_0::SimdCmp                   0      0.00%     68.56% # Type of FU issued
system.cpu0.iq.FU_type_0::SimdCvt                   0      0.00%     68.56% # Type of FU issued
system.cpu0.iq.FU_type_0::SimdMisc                  0      0.00%     68.56% # Type of FU issued
system.cpu0.iq.FU_type_0::SimdMult                  0      0.00%     68.56% # Type of FU issued
system.cpu0.iq.FU_type_0::SimdMultAcc               0      0.00%     68.56% # Type of FU issued
system.cpu0.iq.FU_type_0::SimdShift                 0      0.00%     68.56% # Type of FU issued
system.cpu0.iq.FU_type_0::SimdShiftAcc              0      0.00%     68.56% # Type of FU issued
system.cpu0.iq.FU_type_0::SimdSqrt                  0      0.00%     68.56% # Type of FU issued
system.cpu0.iq.FU_type_0::SimdFloatAdd              0      0.00%     68.56% # Type of FU issued
system.cpu0.iq.FU_type_0::SimdFloatAlu              0      0.00%     68.56% # Type of FU issued
system.cpu0.iq.FU_type_0::SimdFloatCmp              0      0.00%     68.56% # Type of FU issued
system.cpu0.iq.FU_type_0::SimdFloatCvt              0      0.00%     68.56% # Type of FU issued
system.cpu0.iq.FU_type_0::SimdFloatDiv              0      0.00%     68.56% # Type of FU issued
system.cpu0.iq.FU_type_0::SimdFloatMisc             3      0.01%     68.56% # Type of FU issued
system.cpu0.iq.FU_type_0::SimdFloatMult             0      0.00%     68.56% # Type of FU issued
system.cpu0.iq.FU_type_0::SimdFloatMultAcc            0      0.00%     68.56% # Type of FU issued
system.cpu0.iq.FU_type_0::SimdFloatSqrt             0      0.00%     68.56% # Type of FU issued
system.cpu0.iq.FU_type_0::MemRead                6691     17.41%     85.97% # Type of FU issued
system.cpu0.iq.FU_type_0::MemWrite               5392     14.03%    100.00% # Type of FU issued
system.cpu0.iq.FU_type_0::IprAccess                 0      0.00%    100.00% # Type of FU issued
system.cpu0.iq.FU_type_0::InstPrefetch              0      0.00%    100.00% # Type of FU issued
system.cpu0.iq.FU_type_0::total                 38436                       # Type of FU issued
system.cpu0.iq.rate                          0.508547                       # Inst issue rate
system.cpu0.iq.fu_busy_cnt                       1128                       # FU busy when requested
system.cpu0.iq.fu_busy_rate                  0.029347                       # FU busy rate (busy events/executed inst)
system.cpu0.iq.int_inst_queue_reads            119256                       # Number of integer instruction queue reads
system.cpu0.iq.int_inst_queue_writes            56623                       # Number of integer instruction queue writes
system.cpu0.iq.int_inst_queue_wakeup_accesses        36500                       # Number of integer instruction queue wakeup accesses
system.cpu0.iq.fp_inst_queue_reads                 60                       # Number of floating instruction queue reads
system.cpu0.iq.fp_inst_queue_writes                28                       # Number of floating instruction queue writes
system.cpu0.iq.fp_inst_queue_wakeup_accesses           28                       # Number of floating instruction queue wakeup accesses
system.cpu0.iq.int_alu_accesses                 39532                       # Number of integer alu accesses
system.cpu0.iq.fp_alu_accesses                     32                       # Number of floating point alu accesses
system.cpu0.iew.lsq.thread0.forwLoads             120                       # Number of loads that had data forwarded from stores
system.cpu0.iew.lsq.thread0.invAddrLoads            0                       # Number of loads ignored due to an invalid address
system.cpu0.iew.lsq.thread0.squashedLoads         2691                       # Number of loads squashed
system.cpu0.iew.lsq.thread0.ignoredResponses            3                       # Number of memory responses ignored because the instruction is squashed
system.cpu0.iew.lsq.thread0.memOrderViolation           63                       # Number of memory ordering violations
system.cpu0.iew.lsq.thread0.squashedStores         1350                       # Number of stores squashed
system.cpu0.iew.lsq.thread0.invAddrSwpfs            0                       # Number of software prefetches ignored due to an invalid address
system.cpu0.iew.lsq.thread0.blockedLoads            0                       # Number of blocked loads due to partial load-store forwarding
system.cpu0.iew.lsq.thread0.rescheduledLoads          132                       # Number of loads that were rescheduled
system.cpu0.iew.lsq.thread0.cacheBlocked           55                       # Number of times an access to memory failed due to the cache being blocked
system.cpu0.iew.iewIdleCycles                       0                       # Number of cycles IEW is idle
system.cpu0.iew.iewSquashCycles                   702                       # Number of cycles IEW is squashing
system.cpu0.iew.iewBlockCycles                   1769                       # Number of cycles IEW is blocking
system.cpu0.iew.iewUnblockCycles                  545                       # Number of cycles IEW is unblocking
system.cpu0.iew.iewDispatchedInsts              43972                       # Number of instructions dispatched to IQ
system.cpu0.iew.iewDispSquashedInsts              212                       # Number of squashed instructions skipped by dispatch
system.cpu0.iew.iewDispLoadInsts                 7178                       # Number of dispatched load instructions
system.cpu0.iew.iewDispStoreInsts                6139                       # Number of dispatched store instructions
system.cpu0.iew.iewDispNonSpecInsts               133                       # Number of dispatched non-speculative instructions
system.cpu0.iew.iewIQFullEvents                    18                       # Number of times the IQ has become full, causing a stall
system.cpu0.iew.iewLSQFullEvents                  516                       # Number of times the LSQ has become full, causing a stall
system.cpu0.iew.memOrderViolationEvents            63                       # Number of memory order violations
system.cpu0.iew.predictedTakenIncorrect           128                       # Number of branches that were predicted taken incorrectly
system.cpu0.iew.predictedNotTakenIncorrect          554                       # Number of branches that were predicted not taken incorrectly
system.cpu0.iew.branchMispredicts                 682                       # Number of branch mispredicts detected at execute
system.cpu0.iew.iewExecutedInsts                37597                       # Number of executed instructions
system.cpu0.iew.iewExecLoadInsts                 6390                       # Number of load instructions executed
system.cpu0.iew.iewExecSquashedInsts              839                       # Number of squashed instructions skipped in execute
system.cpu0.iew.exec_swp                            0                       # number of swp insts executed
system.cpu0.iew.exec_nop                            8                       # number of nop insts executed
system.cpu0.iew.exec_refs                       11595                       # number of memory reference insts executed
system.cpu0.iew.exec_branches                    6287                       # Number of branches executed
system.cpu0.iew.exec_stores                      5205                       # Number of stores executed
system.cpu0.iew.exec_rate                    0.497446                       # Inst execution rate
system.cpu0.iew.wb_sent                         36819                       # cumulative count of insts sent to commit
system.cpu0.iew.wb_count                        36528                       # cumulative count of insts written-back
system.cpu0.iew.wb_producers                    20500                       # num instructions producing a value
system.cpu0.iew.wb_consumers                    43638                       # num instructions consuming a value
system.cpu0.iew.wb_penalized                        0                       # number of instrctions required to write to 'other' IQ
system.cpu0.iew.wb_rate                      0.483302                       # insts written-back per cycle
system.cpu0.iew.wb_fanout                    0.469774                       # average fanout of values written-back
system.cpu0.iew.wb_penalized_rate                   0                       # fraction of instructions written-back that wrote to 'other' IQ
system.cpu0.commit.commitSquashedInsts          12637                       # The number of squashed insts skipped by commit
system.cpu0.commit.commitNonSpecStalls            213                       # The number of times commit has been forced to stall to communicate backwards
system.cpu0.commit.branchMispredicts              626                       # The number of times a branch was mispredicted
system.cpu0.commit.committed_per_cycle::samples        39229                       # Number of insts commited each cycle
system.cpu0.commit.committed_per_cycle::mean     0.798848                       # Number of insts commited each cycle
system.cpu0.commit.committed_per_cycle::stdev     1.934534                       # Number of insts commited each cycle
system.cpu0.commit.committed_per_cycle::underflows            0      0.00%      0.00% # Number of insts commited each cycle
[...]
system.cpu7.icache.overall_miss_latency::cpu7.inst      5645500                       # number of overall miss cycles
system.cpu7.icache.overall_miss_latency::total      5645500                       # number of overall miss cycles
system.cpu7.icache.ReadReq_accesses::cpu7.inst          908                       # number of ReadReq accesses(hits+misses)
system.cpu7.icache.ReadReq_accesses::total          908                       # number of ReadReq accesses(hits+misses)
system.cpu7.icache.demand_accesses::cpu7.inst          908                       # number of demand (read+write) accesses
system.cpu7.icache.demand_accesses::total          908                       # number of demand (read+write) accesses
system.cpu7.icache.overall_accesses::cpu7.inst          908                       # number of overall (read+write) accesses
system.cpu7.icache.overall_accesses::total          908                       # number of overall (read+write) accesses
system.cpu7.icache.ReadReq_miss_rate::cpu7.inst     0.091410                       # miss rate for ReadReq accesses
system.cpu7.icache.ReadReq_miss_rate::total     0.091410                       # miss rate for ReadReq accesses
system.cpu7.icache.demand_miss_rate::cpu7.inst     0.091410                       # miss rate for demand accesses
system.cpu7.icache.demand_miss_rate::total     0.091410                       # miss rate for demand accesses
system.cpu7.icache.overall_miss_rate::cpu7.inst     0.091410                       # miss rate for overall accesses
system.cpu7.icache.overall_miss_rate::total     0.091410                       # miss rate for overall accesses
system.cpu7.icache.ReadReq_avg_miss_latency::cpu7.inst 68018.072289                       # average ReadReq miss latency
system.cpu7.icache.ReadReq_avg_miss_latency::total 68018.072289                       # average ReadReq miss latency
system.cpu7.icache.demand_avg_miss_latency::cpu7.inst 68018.072289                       # average overall miss latency
system.cpu7.icache.demand_avg_miss_latency::total 68018.072289                       # average overall miss latency
system.cpu7.icache.overall_avg_miss_latency::cpu7.inst 68018.072289                       # average overall miss latency
system.cpu7.icache.overall_avg_miss_latency::total 68018.072289                       # average overall miss latency
system.cpu7.icache.blocked_cycles::no_mshrs          138                       # number of cycles access was blocked
system.cpu7.icache.blocked_cycles::no_targets            0                       # number of cycles access was blocked
system.cpu7.icache.blocked::no_mshrs                1                       # number of cycles access was blocked
system.cpu7.icache.blocked::no_targets              0                       # number of cycles access was blocked
system.cpu7.icache.avg_blocked_cycles::no_mshrs          138                       # average number of cycles each access was blocked
system.cpu7.icache.avg_blocked_cycles::no_targets          nan                       # average number of cycles each access was blocked
system.cpu7.icache.fast_writes                      0                       # number of fast writes performed
system.cpu7.icache.cache_copies                     0                       # number of cache copies performed
system.cpu7.icache.ReadReq_mshr_hits::cpu7.inst           30                       # number of ReadReq MSHR hits
system.cpu7.icache.ReadReq_mshr_hits::total           30                       # number of ReadReq MSHR hits
system.cpu7.icache.demand_mshr_hits::cpu7.inst           30                       # number of demand (read+write) MSHR hits
system.cpu7.icache.demand_mshr_hits::total           30                       # number of demand (read+write) MSHR hits
system.cpu7.icache.overall_mshr_hits::cpu7.inst           30                       # number of overall MSHR hits
system.cpu7.icache.overall_mshr_hits::total           30                       # number of overall MSHR hits
system.cpu7.icache.ReadReq_mshr_misses::cpu7.inst           53                       # number of ReadReq MSHR misses
system.cpu7.icache.ReadReq_mshr_misses::total           53                       # number of ReadReq MSHR misses
system.cpu7.icache.demand_mshr_misses::cpu7.inst           53                       # number of demand (read+write) MSHR misses
system.cpu7.icache.demand_mshr_misses::total           53                       # number of demand (read+write) MSHR misses
system.cpu7.icache.overall_mshr_misses::cpu7.inst           53                       # number of overall MSHR misses
system.cpu7.icache.overall_mshr_misses::total           53                       # number of overall MSHR misses
system.cpu7.icache.ReadReq_mshr_miss_latency::cpu7.inst      4117750                       # number of ReadReq MSHR miss cycles
system.cpu7.icache.ReadReq_mshr_miss_latency::total      4117750                       # number of ReadReq MSHR miss cycles
system.cpu7.icache.demand_mshr_miss_latency::cpu7.inst      4117750                       # number of demand (read+write) MSHR miss cycles
system.cpu7.icache.demand_mshr_miss_latency::total      4117750                       # number of demand (read+write) MSHR miss cycles
system.cpu7.icache.overall_mshr_miss_latency::cpu7.inst      4117750                       # number of overall MSHR miss cycles
system.cpu7.icache.overall_mshr_miss_latency::total      4117750                       # number of overall MSHR miss cycles
system.cpu7.icache.ReadReq_mshr_miss_rate::cpu7.inst     0.058370                       # mshr miss rate for ReadReq accesses
system.cpu7.icache.ReadReq_mshr_miss_rate::total     0.058370                       # mshr miss rate for ReadReq accesses
system.cpu7.icache.demand_mshr_miss_rate::cpu7.inst     0.058370                       # mshr miss rate for demand accesses
system.cpu7.icache.demand_mshr_miss_rate::total     0.058370                       # mshr miss rate for demand accesses
system.cpu7.icache.overall_mshr_miss_rate::cpu7.inst     0.058370                       # mshr miss rate for overall accesses
system.cpu7.icache.overall_mshr_miss_rate::total     0.058370                       # mshr miss rate for overall accesses
system.cpu7.icache.ReadReq_avg_mshr_miss_latency::cpu7.inst 77693.396226                       # average ReadReq mshr miss latency
system.cpu7.icache.ReadReq_avg_mshr_miss_latency::total 77693.396226                       # average ReadReq mshr miss latency
system.cpu7.icache.demand_avg_mshr_miss_latency::cpu7.inst 77693.396226                       # average overall mshr miss latency
system.cpu7.icache.demand_avg_mshr_miss_latency::total 77693.396226                       # average overall mshr miss latency
system.cpu7.icache.overall_avg_mshr_miss_latency::cpu7.inst 77693.396226                       # average overall mshr miss latency
system.cpu7.icache.overall_avg_mshr_miss_latency::total 77693.396226                       # average overall mshr miss latency
system.cpu7.icache.no_allocate_misses               0                       # Number of misses that were no-allocate
system.membus.trans_dist::ReadReq                1465                       # Transaction distribution
system.membus.trans_dist::ReadResp               1464                       # Transaction distribution
system.membus.trans_dist::Writeback                10                       # Transaction distribution
system.membus.trans_dist::UpgradeReq               18                       # Transaction distribution
system.membus.trans_dist::SCUpgradeReq             24                       # Transaction distribution
system.membus.trans_dist::UpgradeResp              42                       # Transaction distribution
system.membus.trans_dist::SCUpgradeFailReq            1                       # Transaction distribution
system.membus.trans_dist::UpgradeFailResp            1                       # Transaction distribution
system.membus.trans_dist::ReadExReq               239                       # Transaction distribution
system.membus.trans_dist::ReadExResp              239                       # Transaction distribution
system.membus.pkt_count_system.cpu0.icache.mem_side::system.mem_ctrls.port         1199                       # Packet count per connected master and slave (bytes)
system.membus.pkt_count_system.cpu0.dcache.mem_side::system.mem_ctrls.port          712                       # Packet count per connected master and slave (bytes)
system.membus.pkt_count_system.cpu1.icache.mem_side::system.mem_ctrls.port          106                       # Packet count per connected master and slave (bytes)
system.membus.pkt_count_system.cpu1.dcache.mem_side::system.mem_ctrls.port           80                       # Packet count per connected master and slave (bytes)
system.membus.pkt_count_system.cpu2.icache.mem_side::system.mem_ctrls.port          106                       # Packet count per connected master and slave (bytes)
system.membus.pkt_count_system.cpu2.dcache.mem_side::system.mem_ctrls.port           77                       # Packet count per connected master and slave (bytes)
system.membus.pkt_count_system.cpu3.icache.mem_side::system.mem_ctrls.port          112                       # Packet count per connected master and slave (bytes)
system.membus.pkt_count_system.cpu3.dcache.mem_side::system.mem_ctrls.port           81                       # Packet count per connected master and slave (bytes)
system.membus.pkt_count_system.cpu4.icache.mem_side::system.mem_ctrls.port          108                       # Packet count per connected master and slave (bytes)
system.membus.pkt_count_system.cpu4.dcache.mem_side::system.mem_ctrls.port           77                       # Packet count per connected master and slave (bytes)
system.membus.pkt_count_system.cpu5.icache.mem_side::system.mem_ctrls.port          104                       # Packet count per connected master and slave (bytes)
system.membus.pkt_count_system.cpu5.dcache.mem_side::system.mem_ctrls.port           78                       # Packet count per connected master and slave (bytes)
system.membus.pkt_count_system.cpu6.icache.mem_side::system.mem_ctrls.port          106                       # Packet count per connected master and slave (bytes)
system.membus.pkt_count_system.cpu6.dcache.mem_side::system.mem_ctrls.port           75                       # Packet count per connected master and slave (bytes)
system.membus.pkt_count_system.cpu7.icache.mem_side::system.mem_ctrls.port          106                       # Packet count per connected master and slave (bytes)
system.membus.pkt_count_system.cpu7.dcache.mem_side::system.mem_ctrls.port           75                       # Packet count per connected master and slave (bytes)
system.membus.pkt_count::total                   3202                       # Packet count per connected master and slave (bytes)
system.membus.pkt_size_system.cpu0.icache.mem_side::system.mem_ctrls.port        38336                       # Cumulative packet size per connected master and slave (bytes)
system.membus.pkt_size_system.cpu0.dcache.mem_side::system.mem_ctrls.port        22208                       # Cumulative packet size per connected master and slave (bytes)
system.membus.pkt_size_system.cpu1.icache.mem_side::system.mem_ctrls.port         3392                       # Cumulative packet size per connected master and slave (bytes)
system.membus.pkt_size_system.cpu1.dcache.mem_side::system.mem_ctrls.port         1152                       # Cumulative packet size per connected master and slave (bytes)
system.membus.pkt_size_system.cpu2.icache.mem_side::system.mem_ctrls.port         3392                       # Cumulative packet size per connected master and slave (bytes)
system.membus.pkt_size_system.cpu2.dcache.mem_side::system.mem_ctrls.port         1152                       # Cumulative packet size per connected master and slave (bytes)
system.membus.pkt_size_system.cpu3.icache.mem_side::system.mem_ctrls.port         3584                       # Cumulative packet size per connected master and slave (bytes)
system.membus.pkt_size_system.cpu3.dcache.mem_side::system.mem_ctrls.port         1088                       # Cumulative packet size per connected master and slave (bytes)
system.membus.pkt_size_system.cpu4.icache.mem_side::system.mem_ctrls.port         3456                       # Cumulative packet size per connected master and slave (bytes)
system.membus.pkt_size_system.cpu4.dcache.mem_side::system.mem_ctrls.port         1216                       # Cumulative packet size per connected master and slave (bytes)
system.membus.pkt_size_system.cpu5.icache.mem_side::system.mem_ctrls.port         3328                       # Cumulative packet size per connected master and slave (bytes)
system.membus.pkt_size_system.cpu5.dcache.mem_side::system.mem_ctrls.port         1088                       # Cumulative packet size per connected master and slave (bytes)
system.membus.pkt_size_system.cpu6.icache.mem_side::system.mem_ctrls.port         3392                       # Cumulative packet size per connected master and slave (bytes)
system.membus.pkt_size_system.cpu6.dcache.mem_side::system.mem_ctrls.port         1088                       # Cumulative packet size per connected master and slave (bytes)
system.membus.pkt_size_system.cpu7.icache.mem_side::system.mem_ctrls.port         3392                       # Cumulative packet size per connected master and slave (bytes)
system.membus.pkt_size_system.cpu7.dcache.mem_side::system.mem_ctrls.port         1152                       # Cumulative packet size per connected master and slave (bytes)
system.membus.pkt_size::total                   92416                       # Cumulative packet size per connected master and slave (bytes)
system.membus.snoops                              301                       # Total snoops (count)
system.membus.snoop_fanout::samples              1757                       # Request fanout histogram
system.membus.snoop_fanout::mean                   15                       # Request fanout histogram
system.membus.snoop_fanout::stdev                   0                       # Request fanout histogram
system.membus.snoop_fanout::underflows              0      0.00%      0.00% # Request fanout histogram
system.membus.snoop_fanout::0                       0      0.00%      0.00% # Request fanout histogram
system.membus.snoop_fanout::1                       0      0.00%      0.00% # Request fanout histogram
system.membus.snoop_fanout::2                       0      0.00%      0.00% # Request fanout histogram
system.membus.snoop_fanout::3                       0      0.00%      0.00% # Request fanout histogram
system.membus.snoop_fanout::4                       0      0.00%      0.00% # Request fanout histogram
system.membus.snoop_fanout::5                       0      0.00%      0.00% # Request fanout histogram
system.membus.snoop_fanout::6                       0      0.00%      0.00% # Request fanout histogram
system.membus.snoop_fanout::7                       0      0.00%      0.00% # Request fanout histogram
system.membus.snoop_fanout::8                       0      0.00%      0.00% # Request fanout histogram
system.membus.snoop_fanout::9                       0      0.00%      0.00% # Request fanout histogram
system.membus.snoop_fanout::10                      0      0.00%      0.00% # Request fanout histogram
system.membus.snoop_fanout::11                      0      0.00%      0.00% # Request fanout histogram
system.membus.snoop_fanout::12                      0      0.00%      0.00% # Request fanout histogram
system.membus.snoop_fanout::13                      0      0.00%      0.00% # Request fanout histogram
system.membus.snoop_fanout::14                      0      0.00%      0.00% # Request fanout histogram
system.membus.snoop_fanout::15                   1757    100.00%    100.00% # Request fanout histogram
system.membus.snoop_fanout::16                      0      0.00%    100.00% # Request fanout histogram
system.membus.snoop_fanout::overflows               0      0.00%    100.00% # Request fanout histogram
system.membus.snoop_fanout::min_value              15                       # Request fanout histogram
system.membus.snoop_fanout::max_value              15                       # Request fanout histogram
system.membus.snoop_fanout::total                1757                       # Request fanout histogram
system.membus.reqLayer0.occupancy             2141495                       # Layer occupancy (ticks)
system.membus.reqLayer0.utilization               5.7                       # Layer utilization (%)
system.membus.respLayer1.occupancy            3183750                       # Layer occupancy (ticks)
system.membus.respLayer1.utilization              8.4                       # Layer utilization (%)
system.membus.respLayer2.occupancy            1862492                       # Layer occupancy (ticks)
system.membus.respLayer2.utilization              4.9                       # Layer utilization (%)
system.membus.respLayer5.occupancy             282750                       # Layer occupancy (ticks)
system.membus.respLayer5.utilization              0.7                       # Layer utilization (%)
system.membus.respLayer6.occupancy             302240                       # Layer occupancy (ticks)
system.membus.respLayer6.utilization              0.8                       # Layer utilization (%)
system.membus.respLayer9.occupancy             285000                       # Layer occupancy (ticks)
system.membus.respLayer9.utilization              0.8                       # Layer utilization (%)
system.membus.respLayer10.occupancy            292243                       # Layer occupancy (ticks)
system.membus.respLayer10.utilization             0.8                       # Layer utilization (%)
system.membus.respLayer13.occupancy            299250                       # Layer occupancy (ticks)
system.membus.respLayer13.utilization             0.8                       # Layer utilization (%)
system.membus.respLayer14.occupancy            310249                       # Layer occupancy (ticks)
system.membus.respLayer14.utilization             0.8                       # Layer utilization (%)
system.membus.respLayer17.occupancy            287500                       # Layer occupancy (ticks)
system.membus.respLayer17.utilization             0.8                       # Layer utilization (%)
system.membus.respLayer18.occupancy            287488                       # Layer occupancy (ticks)
system.membus.respLayer18.utilization             0.8                       # Layer utilization (%)
system.membus.respLayer21.occupancy            276500                       # Layer occupancy (ticks)
system.membus.respLayer21.utilization             0.7                       # Layer utilization (%)
system.membus.respLayer22.occupancy            298746                       # Layer occupancy (ticks)
system.membus.respLayer22.utilization             0.8                       # Layer utilization (%)
system.membus.respLayer25.occupancy            282499                       # Layer occupancy (ticks)
system.membus.respLayer25.utilization             0.7                       # Layer utilization (%)
system.membus.respLayer26.occupancy            282998                       # Layer occupancy (ticks)
system.membus.respLayer26.utilization             0.7                       # Layer utilization (%)
system.membus.respLayer29.occupancy            283750                       # Layer occupancy (ticks)
system.membus.respLayer29.utilization             0.8                       # Layer utilization (%)
system.membus.respLayer30.occupancy            267500                       # Layer occupancy (ticks)
system.membus.respLayer30.utilization             0.7                       # Layer utilization (%)

---------- End Simulation Statistics   ----------
