
---------- Begin Simulation Statistics ----------
sim_seconds                                  0.000051                       # Number of seconds simulated
sim_ticks                                    50861000                       # Number of ticks simulated
final_tick                                   50861000                       # Number of ticks from beginning of simulation (restored from checkpoints and never reset)
sim_freq                                 1000000000000                       # Frequency of simulated ticks
host_inst_rate                                 161771                       # Simulator instruction rate (inst/s)
host_op_rate                                   168416                       # Simulator op (including micro ops) rate (op/s)
host_tick_rate                                9153400                       # Simulator tick rate (ticks/s)
host_mem_usage                                 885012                       # Number of bytes of host memory used
host_seconds                                     5.56                       # Real time elapsed on the host
sim_insts                                      898876                       # Number of instructions simulated
sim_ops                                        935803                       # Number of ops (including micro ops) simulated
system.voltage_domain.voltage                       1                       # Voltage in Volts
system.clk_domain.clock                          1000                       # Clock period in ticks
system.mem_ctrls.bytes_read::cpu00.inst         38528                       # Number of bytes read from this memory
system.mem_ctrls.bytes_read::cpu00.data         25408                       # Number of bytes read from this memory
system.mem_ctrls.bytes_read::cpu01.inst          3328                       # Number of bytes read from this memory
system.mem_ctrls.bytes_read::cpu01.data          1088                       # Number of bytes read from this memory
system.mem_ctrls.bytes_read::cpu02.inst          3264                       # Number of bytes read from this memory
system.mem_ctrls.bytes_read::cpu02.data          1024                       # Number of bytes read from this memory
system.mem_ctrls.bytes_read::cpu03.inst          3392                       # Number of bytes read from this memory
system.mem_ctrls.bytes_read::cpu03.data          1088                       # Number of bytes read from this memory
system.mem_ctrls.bytes_read::cpu04.inst          3328                       # Number of bytes read from this memory
system.mem_ctrls.bytes_read::cpu04.data          1088                       # Number of bytes read from this memory
system.mem_ctrls.bytes_read::cpu05.inst          3520                       # Number of bytes read from this memory
system.mem_ctrls.bytes_read::cpu05.data          1088                       # Number of bytes read from this memory
system.mem_ctrls.bytes_read::cpu06.inst          3328                       # Number of bytes read from this memory
system.mem_ctrls.bytes_read::cpu06.data          1088                       # Number of bytes read from this memory
system.mem_ctrls.bytes_read::cpu07.inst          3264                       # Number of bytes read from this memory
system.mem_ctrls.bytes_read::cpu07.data          1024                       # Number of bytes read from this memory
system.mem_ctrls.bytes_read::cpu08.inst          3264                       # Number of bytes read from this memory
system.mem_ctrls.bytes_read::cpu08.data          1024                       # Number of bytes read from this memory
system.mem_ctrls.bytes_read::cpu09.inst          3264                       # Number of bytes read from this memory
system.mem_ctrls.bytes_read::cpu09.data          1024                       # Number of bytes read from this memory
system.mem_ctrls.bytes_read::cpu10.inst          3328                       # Number of bytes read from this memory
system.mem_ctrls.bytes_read::cpu10.data          1088                       # Number of bytes read from this memory
system.mem_ctrls.bytes_read::cpu11.inst          3264                       # Number of bytes read from this memory
system.mem_ctrls.bytes_read::cpu11.data          1024                       # Number of bytes read from this memory
system.mem_ctrls.bytes_read::cpu12.inst          3584                       # Number of bytes read from this memory
system.mem_ctrls.bytes_read::cpu12.data          1216                       # Number of bytes read from this memory
system.mem_ctrls.bytes_read::cpu13.inst          3520                       # Number of bytes read from this memory
system.mem_ctrls.bytes_read::cpu13.data          1088                       # Number of bytes read from this memory
system.mem_ctrls.bytes_read::cpu14.inst          3328                       # Number of bytes read from this memory
system.mem_ctrls.bytes_read::cpu14.data          1088                       # Number of bytes read from this memory
system.mem_ctrls.bytes_read::cpu15.inst          3392                       # Number of bytes read from this memory
system.mem_ctrls.bytes_read::cpu15.data          1088                       # Number of bytes read from this memory
system.mem_ctrls.bytes_read::cpu16.inst          3264                       # Number of bytes read from this memory
system.mem_ctrls.bytes_read::cpu16.data          1024                       # Number of bytes read from this memory
system.mem_ctrls.bytes_read::cpu17.inst          3392                       # Number of bytes read from this memory
system.mem_ctrls.bytes_read::cpu17.data          1088                       # Number of bytes read from this memory
system.mem_ctrls.bytes_read::cpu18.inst          3264                       # Number of bytes read from this memory
system.mem_ctrls.bytes_read::cpu18.data          1024                       # Number of bytes read from this memory
system.mem_ctrls.bytes_read::cpu19.inst          3264                       # Number of bytes read from this memory
system.mem_ctrls.bytes_read::cpu19.data          1024                       # Number of bytes read from this memory
system.mem_ctrls.bytes_read::cpu20.inst          3264                       # Number of bytes read from this memory
system.mem_ctrls.bytes_read::cpu20.data          1024                       # Number of bytes read from this memory
system.mem_ctrls.bytes_read::cpu21.inst          3264                       # Number of bytes read from this memory
system.mem_ctrls.bytes_read::cpu21.data          1024                       # Number of bytes read from this memory
system.mem_ctrls.bytes_read::cpu22.inst          3392                       # Number of bytes read from this memory
system.mem_ctrls.bytes_read::cpu22.data          1024                       # Number of bytes read from this memory
system.mem_ctrls.bytes_read::cpu23.inst          3456                       # Number of bytes read from this memory
system.mem_ctrls.bytes_read::cpu23.data          1088                       # Number of bytes read from this memory
system.mem_ctrls.bytes_read::cpu24.inst          3328                       # Number of bytes read from this memory
system.mem_ctrls.bytes_read::cpu24.data          1024                       # Number of bytes read from this memory
system.mem_ctrls.bytes_read::cpu25.inst          3456                       # Number of bytes read from this memory
system.mem_ctrls.bytes_read::cpu25.data          1024                       # Number of bytes read from this memory
system.mem_ctrls.bytes_read::cpu26.inst          3392                       # Number of bytes read from this memory
system.mem_ctrls.bytes_read::cpu26.data          1024                       # Number of bytes read from this memory
system.mem_ctrls.bytes_read::cpu27.inst          3520                       # Number of bytes read from this memory
system.mem_ctrls.bytes_read::cpu27.data          1024                       # Number of bytes read from this memory
system.mem_ctrls.bytes_read::cpu28.inst          3584                       # Number of bytes read from this memory
system.mem_ctrls.bytes_read::cpu28.data          1088                       # Number of bytes read from this memory
system.mem_ctrls.bytes_read::cpu29.inst          3392                       # Number of bytes read from this memory
system.mem_ctrls.bytes_read::cpu29.data          1024                       # Number of bytes read from this memory
system.mem_ctrls.bytes_read::cpu30.inst          3456                       # Number of bytes read from this memory
system.mem_ctrls.bytes_read::cpu30.data           960                       # Number of bytes read from this memory
system.mem_ctrls.bytes_read::cpu31.inst          3392                       # Number of bytes read from this memory
system.mem_ctrls.bytes_read::cpu31.data          1088                       # Number of bytes read from this memory
system.mem_ctrls.bytes_read::total             201088                       # Number of bytes read from this memory
system.mem_ctrls.bytes_inst_read::cpu00.inst        38528                       # Number of instructions bytes read from this memory
system.mem_ctrls.bytes_inst_read::cpu01.inst         3328                       # Number of instructions bytes read from this memory
system.mem_ctrls.bytes_inst_read::cpu02.inst         3264                       # Number of instructions bytes read from this memory
system.mem_ctrls.bytes_inst_read::cpu03.inst         3392                       # Number of instructions bytes read from this memory
system.mem_ctrls.bytes_inst_read::cpu04.inst         3328                       # Number of instructions bytes read from this memory
system.mem_ctrls.bytes_inst_read::cpu05.inst         3520                       # Number of instructions bytes read from this memory
system.mem_ctrls.bytes_inst_read::cpu06.inst         3328                       # Number of instructions bytes read from this memory
system.mem_ctrls.bytes_inst_read::cpu07.inst         3264                       # Number of instructions bytes read from this memory
system.mem_ctrls.bytes_inst_read::cpu08.inst         3264                       # Number of instructions bytes read from this memory
system.mem_ctrls.bytes_inst_read::cpu09.inst         3264                       # Number of instructions bytes read from this memory
system.mem_ctrls.bytes_inst_read::cpu10.inst         3328                       # Number of instructions bytes read from this memory
system.mem_ctrls.bytes_inst_read::cpu11.inst         3264                       # Number of instructions bytes read from this memory
system.mem_ctrls.bytes_inst_read::cpu12.inst         3584                       # Number of instructions bytes read from this memory
system.mem_ctrls.bytes_inst_read::cpu13.inst         3520                       # Number of instructions bytes read from this memory
system.mem_ctrls.bytes_inst_read::cpu14.inst         3328                       # Number of instructions bytes read from this memory
system.mem_ctrls.bytes_inst_read::cpu15.inst         3392                       # Number of instructions bytes read from this memory
system.mem_ctrls.bytes_inst_read::cpu16.inst         3264                       # Number of instructions bytes read from this memory
system.mem_ctrls.bytes_inst_read::cpu17.inst         3392                       # Number of instructions bytes read from this memory
system.mem_ctrls.bytes_inst_read::cpu18.inst         3264                       # Number of instructions bytes read from this memory
system.mem_ctrls.bytes_inst_read::cpu19.inst         3264                       # Number of instructions bytes read from this memory
system.mem_ctrls.bytes_inst_read::cpu20.inst         3264                       # Number of instructions bytes read from this memory
system.mem_ctrls.bytes_inst_read::cpu21.inst         3264                       # Number of instructions bytes read from this memory
system.mem_ctrls.bytes_inst_read::cpu22.inst         3392                       # Number of instructions bytes read from this memory
system.mem_ctrls.bytes_inst_read::cpu23.inst         3456                       # Number of instructions bytes read from this memory
system.mem_ctrls.bytes_inst_read::cpu24.inst         3328                       # Number of instructions bytes read from this memory
system.mem_ctrls.bytes_inst_read::cpu25.inst         3456                       # Number of instructions bytes read from this memory
system.mem_ctrls.bytes_inst_read::cpu26.inst         3392                       # Number of instructions bytes read from this memory
system.mem_ctrls.bytes_inst_read::cpu27.inst         3520                       # Number of instructions bytes read from this memory
system.mem_ctrls.bytes_inst_read::cpu28.inst         3584                       # Number of instructions bytes read from this memory
system.mem_ctrls.bytes_inst_read::cpu29.inst         3392                       # Number of instructions bytes read from this memory
system.mem_ctrls.bytes_inst_read::cpu30.inst         3456                       # Number of instructions bytes read from this memory
system.mem_ctrls.bytes_inst_read::cpu31.inst         3392                       # Number of instructions bytes read from this memory
system.mem_ctrls.bytes_inst_read::total        142976                       # Number of instructions bytes read from this memory
system.mem_ctrls.bytes_written::writebacks         2112                       # Number of bytes written to this memory
system.mem_ctrls.bytes_written::total            2112                       # Number of bytes written to this memory
system.mem_ctrls.num_reads::cpu00.inst            602                       # Number of read requests responded to by this memory
system.mem_ctrls.num_reads::cpu00.data            397                       # Number of read requests responded to by this memory
system.mem_ctrls.num_reads::cpu01.inst             52                       # Number of read requests responded to by this memory
system.mem_ctrls.num_reads::cpu01.data             17                       # Number of read requests responded to by this memory
system.mem_ctrls.num_reads::cpu02.inst             51                       # Number of read requests responded to by this memory
system.mem_ctrls.num_reads::cpu02.data             16                       # Number of read requests responded to by this memory
system.mem_ctrls.num_reads::cpu03.inst             53                       # Number of read requests responded to by this memory
system.mem_ctrls.num_reads::cpu03.data             17                       # Number of read requests responded to by this memory
system.mem_ctrls.num_reads::cpu04.inst             52                       # Number of read requests responded to by this memory
system.mem_ctrls.num_reads::cpu04.data             17                       # Number of read requests responded to by this memory
system.mem_ctrls.num_reads::cpu05.inst             55                       # Number of read requests responded to by this memory
system.mem_ctrls.num_reads::cpu05.data             17                       # Number of read requests responded to by this memory
system.mem_ctrls.num_reads::cpu06.inst             52                       # Number of read requests responded to by this memory
system.mem_ctrls.num_reads::cpu06.data             17                       # Number of read requests responded to by this memory
system.mem_ctrls.num_reads::cpu07.inst             51                       # Number of read requests responded to by this memory
system.mem_ctrls.num_reads::cpu07.data             16                       # Number of read requests responded to by this memory
system.mem_ctrls.num_reads::cpu08.inst             51                       # Number of read requests responded to by this memory
system.mem_ctrls.num_reads::cpu08.data             16                       # Number of read requests responded to by this memory
system.mem_ctrls.num_reads::cpu09.inst             51                       # Number of read requests responded to by this memory
system.mem_ctrls.num_reads::cpu09.data             16                       # Number of read requests responded to by this memory
system.mem_ctrls.num_reads::cpu10.inst             52                       # Number of read requests responded to by this memory
system.mem_ctrls.num_reads::cpu10.data             17                       # Number of read requests responded to by this memory
system.mem_ctrls.num_reads::cpu11.inst             51                       # Number of read requests responded to by this memory
system.mem_ctrls.num_reads::cpu11.data             16                       # Number of read requests responded to by this memory
system.mem_ctrls.num_reads::cpu12.inst             56                       # Number of read requests responded to by this memory
system.mem_ctrls.num_reads::cpu12.data             19                       # Number of read requests responded to by this memory
system.mem_ctrls.num_reads::cpu13.inst             55                       # Number of read requests responded to by this memory
system.mem_ctrls.num_reads::cpu13.data             17                       # Number of read requests responded to by this memory
system.mem_ctrls.num_reads::cpu14.inst             52                       # Number of read requests responded to by this memory
system.mem_ctrls.num_reads::cpu14.data             17                       # Number of read requests responded to by this memory
system.mem_ctrls.num_reads::cpu15.inst             53                       # Number of read requests responded to by this memory
system.mem_ctrls.num_reads::cpu15.data             17                       # Number of read requests responded to by this memory
system.mem_ctrls.num_reads::cpu16.inst             51                       # Number of read requests responded to by this memory
system.mem_ctrls.num_reads::cpu16.data             16                       # Number of read requests responded to by this memory
system.mem_ctrls.num_reads::cpu17.inst             53                       # Number of read requests responded to by this memory
system.mem_ctrls.num_reads::cpu17.data             17                       # Number of read requests responded to by this memory
system.mem_ctrls.num_reads::cpu18.inst             51                       # Number of read requests responded to by this memory
system.mem_ctrls.num_reads::cpu18.data             16                       # Number of read requests responded to by this memory
system.mem_ctrls.num_reads::cpu19.inst             51                       # Number of read requests responded to by this memory
system.mem_ctrls.num_reads::cpu19.data             16                       # Number of read requests responded to by this memory
system.mem_ctrls.num_reads::cpu20.inst             51                       # Number of read requests responded to by this memory
system.mem_ctrls.num_reads::cpu20.data             16                       # Number of read requests responded to by this memory
system.mem_ctrls.num_reads::cpu21.inst             51                       # Number of read requests responded to by this memory
system.mem_ctrls.num_reads::cpu21.data             16                       # Number of read requests responded to by this memory
system.mem_ctrls.num_reads::cpu22.inst             53                       # Number of read requests responded to by this memory
system.mem_ctrls.num_reads::cpu22.data             16                       # Number of read requests responded to by this memory
system.mem_ctrls.num_reads::cpu23.inst             54                       # Number of read requests responded to by this memory
system.mem_ctrls.num_reads::cpu23.data             17                       # Number of read requests responded to by this memory
system.mem_ctrls.num_reads::cpu24.inst             52                       # Number of read requests responded to by this memory
system.mem_ctrls.num_reads::cpu24.data             16                       # Number of read requests responded to by this memory
system.mem_ctrls.num_reads::cpu25.inst             54                       # Number of read requests responded to by this memory
system.mem_ctrls.num_reads::cpu25.data             16                       # Number of read requests responded to by this memory
system.mem_ctrls.num_reads::cpu26.inst             53                       # Number of read requests responded to by this memory
system.mem_ctrls.num_reads::cpu26.data             16                       # Number of read requests responded to by this memory
system.mem_ctrls.num_reads::cpu27.inst             55                       # Number of read requests responded to by this memory
system.mem_ctrls.num_reads::cpu27.data             16                       # Number of read requests responded to by this memory
system.mem_ctrls.num_reads::cpu28.inst             56                       # Number of read requests responded to by this memory
system.mem_ctrls.num_reads::cpu28.data             17                       # Number of read requests responded to by this memory
system.mem_ctrls.num_reads::cpu29.inst             53                       # Number of read requests responded to by this memory
system.mem_ctrls.num_reads::cpu29.data             16                       # Number of read requests responded to by this memory
system.mem_ctrls.num_reads::cpu30.inst             54                       # Number of read requests responded to by this memory
system.mem_ctrls.num_reads::cpu30.data             15                       # Number of read requests responded to by this memory
system.mem_ctrls.num_reads::cpu31.inst             53                       # Number of read requests responded to by this memory
system.mem_ctrls.num_reads::cpu31.data             17                       # Number of read requests responded to by this memory
system.mem_ctrls.num_reads::total                3142                       # Number of read requests responded to by this memory
system.mem_ctrls.num_writes::writebacks            33                       # Number of write requests responded to by this memory
system.mem_ctrls.num_writes::total                 33                       # Number of write requests responded to by this memory
system.mem_ctrls.bw_read::cpu00.inst        757515582                       # Total read bandwidth from this memory (bytes/s)
system.mem_ctrls.bw_read::cpu00.data        499557618                       # Total read bandwidth from this memory (bytes/s)
system.mem_ctrls.bw_read::cpu01.inst         65433240                       # Total read bandwidth from this memory (bytes/s)
system.mem_ctrls.bw_read::cpu01.data         21391636                       # Total read bandwidth from this memory (bytes/s)
system.mem_ctrls.bw_read::cpu02.inst         64174908                       # Total read bandwidth from this memory (bytes/s)
system.mem_ctrls.bw_read::cpu02.data         20133304                       # Total read bandwidth from this memory (bytes/s)
system.mem_ctrls.bw_read::cpu03.inst         66691571                       # Total read bandwidth from this memory (bytes/s)
system.mem_ctrls.bw_read::cpu03.data         21391636                       # Total read bandwidth from this memory (bytes/s)
system.mem_ctrls.bw_read::cpu04.inst         65433240                       # Total read bandwidth from this memory (bytes/s)
system.mem_ctrls.bw_read::cpu04.data         21391636                       # Total read bandwidth from this memory (bytes/s)
system.mem_ctrls.bw_read::cpu05.inst         69208234                       # Total read bandwidth from this memory (bytes/s)
system.mem_ctrls.bw_read::cpu05.data         21391636                       # Total read bandwidth from this memory (bytes/s)
system.mem_ctrls.bw_read::cpu06.inst         65433240                       # Total read bandwidth from this memory (bytes/s)
system.mem_ctrls.bw_read::cpu06.data         21391636                       # Total read bandwidth from this memory (bytes/s)
system.mem_ctrls.bw_read::cpu07.inst         64174908                       # Total read bandwidth from this memory (bytes/s)
system.mem_ctrls.bw_read::cpu07.data         20133304                       # Total read bandwidth from this memory (bytes/s)
system.mem_ctrls.bw_read::cpu08.inst         64174908                       # Total read bandwidth from this memory (bytes/s)
system.mem_ctrls.bw_read::cpu08.data         20133304                       # Total read bandwidth from this memory (bytes/s)
system.mem_ctrls.bw_read::cpu09.inst         64174908                       # Total read bandwidth from this memory (bytes/s)
system.mem_ctrls.bw_read::cpu09.data         20133304                       # Total read bandwidth from this memory (bytes/s)
system.mem_ctrls.bw_read::cpu10.inst         65433240                       # Total read bandwidth from this memory (bytes/s)
system.mem_ctrls.bw_read::cpu10.data         21391636                       # Total read bandwidth from this memory (bytes/s)
system.mem_ctrls.bw_read::cpu11.inst         64174908                       # Total read bandwidth from this memory (bytes/s)
system.mem_ctrls.bw_read::cpu11.data         20133304                       # Total read bandwidth from this memory (bytes/s)
system.mem_ctrls.bw_read::cpu12.inst         70466566                       # Total read bandwidth from this memory (bytes/s)
system.mem_ctrls.bw_read::cpu12.data         23908299                       # Total read bandwidth from this memory (bytes/s)
system.mem_ctrls.bw_read::cpu13.inst         69208234                       # Total read bandwidth from this memory (bytes/s)
system.mem_ctrls.bw_read::cpu13.data         21391636                       # Total read bandwidth from this memory (bytes/s)
system.mem_ctrls.bw_read::cpu14.inst         65433240                       # Total read bandwidth from this memory (bytes/s)
system.mem_ctrls.bw_read::cpu14.data         21391636                       # Total read bandwidth from this memory (bytes/s)
system.mem_ctrls.bw_read::cpu15.inst         66691571                       # Total read bandwidth from this memory (bytes/s)
system.mem_ctrls.bw_read::cpu15.data         21391636                       # Total read bandwidth from this memory (bytes/s)
system.mem_ctrls.bw_read::cpu16.inst         64174908                       # Total read bandwidth from this memory (bytes/s)
system.mem_ctrls.bw_read::cpu16.data         20133304                       # Total read bandwidth from this memory (bytes/s)
system.mem_ctrls.bw_read::cpu17.inst         66691571                       # Total read bandwidth from this memory (bytes/s)
system.mem_ctrls.bw_read::cpu17.data         21391636                       # Total read bandwidth from this memory (bytes/s)
system.mem_ctrls.bw_read::cpu18.inst         64174908                       # Total read bandwidth from this memory (bytes/s)
system.mem_ctrls.bw_read::cpu18.data         20133304                       # Total read bandwidth from this memory (bytes/s)
system.mem_ctrls.bw_read::cpu19.inst         64174908                       # Total read bandwidth from this memory (bytes/s)
system.mem_ctrls.bw_read::cpu19.data         20133304                       # Total read bandwidth from this memory (bytes/s)
system.mem_ctrls.bw_read::cpu20.inst         64174908                       # Total read bandwidth from this memory (bytes/s)
system.mem_ctrls.bw_read::cpu20.data         20133304                       # Total read bandwidth from this memory (bytes/s)
system.mem_ctrls.bw_read::cpu21.inst         64174908                       # Total read bandwidth from this memory (bytes/s)
system.mem_ctrls.bw_read::cpu21.data         20133304                       # Total read bandwidth from this memory (bytes/s)
system.mem_ctrls.bw_read::cpu22.inst         66691571                       # Total read bandwidth from this memory (bytes/s)
system.mem_ctrls.bw_read::cpu22.data         20133304                       # Total read bandwidth from this memory (bytes/s)
system.mem_ctrls.bw_read::cpu23.inst         67949903                       # Total read bandwidth from this memory (bytes/s)
system.mem_ctrls.bw_read::cpu23.data         21391636                       # Total read bandwidth from this memory (bytes/s)
system.mem_ctrls.bw_read::cpu24.inst         65433240                       # Total read bandwidth from this memory (bytes/s)
system.mem_ctrls.bw_read::cpu24.data         20133304                       # Total read bandwidth from this memory (bytes/s)
system.mem_ctrls.bw_read::cpu25.inst         67949903                       # Total read bandwidth from this memory (bytes/s)
system.mem_ctrls.bw_read::cpu25.data         20133304                       # Total read bandwidth from this memory (bytes/s)
system.mem_ctrls.bw_read::cpu26.inst         66691571                       # Total read bandwidth from this memory (bytes/s)
system.mem_ctrls.bw_read::cpu26.data         20133304                       # Total read bandwidth from this memory (bytes/s)
system.mem_ctrls.bw_read::cpu27.inst         69208234                       # Total read bandwidth from this memory (bytes/s)
system.mem_ctrls.bw_read::cpu27.data         20133304                       # Total read bandwidth from this memory (bytes/s)
system.mem_ctrls.bw_read::cpu28.inst         70466566                       # Total read bandwidth from this memory (bytes/s)
system.mem_ctrls.bw_read::cpu28.data         21391636                       # Total read bandwidth from this memory (bytes/s)
system.mem_ctrls.bw_read::cpu29.inst         66691571                       # Total read bandwidth from this memory (bytes/s)
system.mem_ctrls.bw_read::cpu29.data         20133304                       # Total read bandwidth from this memory (bytes/s)
system.mem_ctrls.bw_read::cpu30.inst         67949903                       # Total read bandwidth from this memory (bytes/s)
system.mem_ctrls.bw_read::cpu30.data         18874973                       # Total read bandwidth from this memory (bytes/s)
system.mem_ctrls.bw_read::cpu31.inst         66691571                       # Total read bandwidth from this memory (bytes/s)
system.mem_ctrls.bw_read::cpu31.data         21391636                       # Total read bandwidth from this memory (bytes/s)
system.mem_ctrls.bw_read::total            3953677671                       # Total read bandwidth from this memory (bytes/s)
system.mem_ctrls.bw_inst_read::cpu00.inst    757515582                       # Instruction read bandwidth from this memory (bytes/s)
system.mem_ctrls.bw_inst_read::cpu01.inst     65433240                       # Instruction read bandwidth from this memory (bytes/s)
system.mem_ctrls.bw_inst_read::cpu02.inst     64174908                       # Instruction read bandwidth from this memory (bytes/s)
system.mem_ctrls.bw_inst_read::cpu03.inst     66691571                       # Instruction read bandwidth from this memory (bytes/s)
system.mem_ctrls.bw_inst_read::cpu04.inst     65433240                       # Instruction read bandwidth from this memory (bytes/s)
system.mem_ctrls.bw_inst_read::cpu05.inst     69208234                       # Instruction read bandwidth from this memory (bytes/s)
system.mem_ctrls.bw_inst_read::cpu06.inst     65433240                       # Instruction read bandwidth from this memory (bytes/s)
system.mem_ctrls.bw_inst_read::cpu07.inst     64174908                       # Instruction read bandwidth from this memory (bytes/s)
system.mem_ctrls.bw_inst_read::cpu08.inst     64174908                       # Instruction read bandwidth from this memory (bytes/s)
system.mem_ctrls.bw_inst_read::cpu09.inst     64174908                       # Instruction read bandwidth from this memory (bytes/s)
system.mem_ctrls.bw_inst_read::cpu10.inst     65433240                       # Instruction read bandwidth from this memory (bytes/s)
system.mem_ctrls.bw_inst_read::cpu11.inst     64174908                       # Instruction read bandwidth from this memory (bytes/s)
system.mem_ctrls.bw_inst_read::cpu12.inst     70466566                       # Instruction read bandwidth from this memory (bytes/s)
system.mem_ctrls.bw_inst_read::cpu13.inst     69208234                       # Instruction read bandwidth from this memory (bytes/s)
system.mem_ctrls.bw_inst_read::cpu14.inst     65433240                       # Instruction read bandwidth from this memory (bytes/s)
system.mem_ctrls.bw_inst_read::cpu15.inst     66691571                       # Instruction read bandwidth from this memory (bytes/s)
system.mem_ctrls.bw_inst_read::cpu16.inst     64174908                       # Instruction read bandwidth from this memory (bytes/s)
system.mem_ctrls.bw_inst_read::cpu17.inst     66691571                       # Instruction read bandwidth from this memory (bytes/s)
system.mem_ctrls.bw_inst_read::cpu18.inst     64174908                       # Instruction read bandwidth from this memory (bytes/s)
system.mem_ctrls.bw_inst_read::cpu19.inst     64174908                       # Instruction read bandwidth from this memory (bytes/s)
system.mem_ctrls.bw_inst_read::cpu20.inst     64174908                       # Instruction read bandwidth from this memory (bytes/s)
system.mem_ctrls.bw_inst_read::cpu21.inst     64174908                       # Instruction read bandwidth from this memory (bytes/s)
system.mem_ctrls.bw_inst_read::cpu22.inst     66691571                       # Instruction read bandwidth from this memory (bytes/s)
system.mem_ctrls.bw_inst_read::cpu23.inst     67949903                       # Instruction read bandwidth from this memory (bytes/s)
system.mem_ctrls.bw_inst_read::cpu24.inst     65433240                       # Instruction read bandwidth from this memory (bytes/s)
system.mem_ctrls.bw_inst_read::cpu25.inst     67949903                       # Instruction read bandwidth from this memory (bytes/s)
system.mem_ctrls.bw_inst_read::cpu26.inst     66691571                       # Instruction read bandwidth from this memory (bytes/s)
system.mem_ctrls.bw_inst_read::cpu27.inst     69208234                       # Instruction read bandwidth from this memory (bytes/s)
system.mem_ctrls.bw_inst_read::cpu28.inst     70466566                       # Instruction read bandwidth from this memory (bytes/s)
system.mem_ctrls.bw_inst_read::cpu29.inst     66691571                       # Instruction read bandwidth from this memory (bytes/s)
system.mem_ctrls.bw_inst_read::cpu30.inst     67949903                       # Instruction read bandwidth from this memory (bytes/s)
system.mem_ctrls.bw_inst_read::cpu31.inst     66691571                       # Instruction read bandwidth from this memory (bytes/s)
system.mem_ctrls.bw_inst_read::total       2811112640                       # Instruction read bandwidth from this memory (bytes/s)
system.mem_ctrls.bw_write::writebacks        41524941                       # Write bandwidth from this memory (bytes/s)
system.mem_ctrls.bw_write::total             41524941                       # Write bandwidth from this memory (bytes/s)
system.mem_ctrls.bw_total::writebacks        41524941                       # Total bandwidth to/from this memory (bytes/s)
system.mem_ctrls.bw_total::cpu00.inst       757515582                       # Total bandwidth to/from this memory (bytes/s)
system.mem_ctrls.bw_total::cpu00.data       499557618                       # Total bandwidth to/from this memory (bytes/s)
system.mem_ctrls.bw_total::cpu01.inst        65433240                       # Total bandwidth to/from this memory (bytes/s)
system.mem_ctrls.bw_total::cpu01.data        21391636                       # Total bandwidth to/from this memory (bytes/s)
system.mem_ctrls.bw_total::cpu02.inst        64174908                       # Total bandwidth to/from this memory (bytes/s)
system.mem_ctrls.bw_total::cpu02.data        20133304                       # Total bandwidth to/from this memory (bytes/s)
system.mem_ctrls.bw_total::cpu03.inst        66691571                       # Total bandwidth to/from this memory (bytes/s)
system.mem_ctrls.bw_total::cpu03.data        21391636                       # Total bandwidth to/from this memory (bytes/s)
system.mem_ctrls.bw_total::cpu04.inst        65433240                       # Total bandwidth to/from this memory (bytes/s)
system.mem_ctrls.bw_total::cpu04.data        21391636                       # Total bandwidth to/from this memory (bytes/s)
system.mem_ctrls.bw_total::cpu05.inst        69208234                       # Total bandwidth to/from this memory (bytes/s)
system.mem_ctrls.bw_total::cpu05.data        21391636                       # Total bandwidth to/from this memory (bytes/s)
system.mem_ctrls.bw_total::cpu06.inst        65433240                       # Total bandwidth to/from this memory (bytes/s)
system.mem_ctrls.bw_total::cpu06.data        21391636                       # Total bandwidth to/from this memory (bytes/s)
system.mem_ctrls.bw_total::cpu07.inst        64174908                       # Total bandwidth to/from this memory (bytes/s)
system.mem_ctrls.bw_total::cpu07.data        20133304                       # Total bandwidth to/from this memory (bytes/s)
system.mem_ctrls.bw_total::cpu08.inst        64174908                       # Total bandwidth to/from this memory (bytes/s)
system.mem_ctrls.bw_total::cpu08.data        20133304                       # Total bandwidth to/from this memory (bytes/s)
system.mem_ctrls.bw_total::cpu09.inst        64174908                       # Total bandwidth to/from this memory (bytes/s)
system.mem_ctrls.bw_total::cpu09.data        20133304                       # Total bandwidth to/from this memory (bytes/s)
system.mem_ctrls.bw_total::cpu10.inst        65433240                       # Total bandwidth to/from this memory (bytes/s)
system.mem_ctrls.bw_total::cpu10.data        21391636                       # Total bandwidth to/from this memory (bytes/s)
system.mem_ctrls.bw_total::cpu11.inst        64174908                       # Total bandwidth to/from this memory (bytes/s)
system.mem_ctrls.bw_total::cpu11.data        20133304                       # Total bandwidth to/from this memory (bytes/s)
system.mem_ctrls.bw_total::cpu12.inst        70466566                       # Total bandwidth to/from this memory (bytes/s)
system.mem_ctrls.bw_total::cpu12.data        23908299                       # Total bandwidth to/from this memory (bytes/s)
system.mem_ctrls.bw_total::cpu13.inst        69208234                       # Total bandwidth to/from this memory (bytes/s)
system.mem_ctrls.bw_total::cpu13.data        21391636                       # Total bandwidth to/from this memory (bytes/s)
system.mem_ctrls.bw_total::cpu14.inst        65433240                       # Total bandwidth to/from this memory (bytes/s)
system.mem_ctrls.bw_total::cpu14.data        21391636                       # Total bandwidth to/from this memory (bytes/s)
system.mem_ctrls.bw_total::cpu15.inst        66691571                       # Total bandwidth to/from this memory (bytes/s)
system.mem_ctrls.bw_total::cpu15.data        21391636                       # Total bandwidth to/from this memory (bytes/s)
system.mem_ctrls.bw_total::cpu16.inst        64174908                       # Total bandwidth to/from this memory (bytes/s)
system.mem_ctrls.bw_total::cpu16.data        20133304                       # Total bandwidth to/from this memory (bytes/s)
system.mem_ctrls.bw_total::cpu17.inst        66691571                       # Total bandwidth to/from this memory (bytes/s)
system.mem_ctrls.bw_total::cpu17.data        21391636                       # Total bandwidth to/from this memory (bytes/s)
system.mem_ctrls.bw_total::cpu18.inst        64174908                       # Total bandwidth to/from this memory (bytes/s)
system.mem_ctrls.bw_total::cpu18.data        20133304                       # Total bandwidth to/from this memory (bytes/s)
system.mem_ctrls.bw_total::cpu19.inst        64174908                       # Total bandwidth to/from this memory (bytes/s)
system.mem_ctrls.bw_total::cpu19.data        20133304                       # Total bandwidth to/from this memory (bytes/s)
system.mem_ctrls.bw_total::cpu20.inst        64174908                       # Total bandwidth to/from this memory (bytes/s)
system.mem_ctrls.bw_total::cpu20.data        20133304                       # Total bandwidth to/from this memory (bytes/s)
system.mem_ctrls.bw_total::cpu21.inst        64174908                       # Total bandwidth to/from this memory (bytes/s)
system.mem_ctrls.bw_total::cpu21.data        20133304                       # Total bandwidth to/from this memory (bytes/s)
system.mem_ctrls.bw_total::cpu22.inst        66691571                       # Total bandwidth to/from this memory (bytes/s)
system.mem_ctrls.bw_total::cpu22.data        20133304                       # Total bandwidth to/from this memory (bytes/s)
system.mem_ctrls.bw_total::cpu23.inst        67949903                       # Total bandwidth to/from this memory (bytes/s)
system.mem_ctrls.bw_total::cpu23.data        21391636                       # Total bandwidth to/from this memory (bytes/s)
system.mem_ctrls.bw_total::cpu24.inst        65433240                       # Total bandwidth to/from this memory (bytes/s)
system.mem_ctrls.bw_total::cpu24.data        20133304                       # Total bandwidth to/from this memory (bytes/s)
system.mem_ctrls.bw_total::cpu25.inst        67949903                       # Total bandwidth to/from this memory (bytes/s)
system.mem_ctrls.bw_total::cpu25.data        20133304                       # Total bandwidth to/from this memory (bytes/s)
system.mem_ctrls.bw_total::cpu26.inst        66691571                       # Total bandwidth to/from this memory (bytes/s)
system.mem_ctrls.bw_total::cpu26.data        20133304                       # Total bandwidth to/from this memory (bytes/s)
system.mem_ctrls.bw_total::cpu27.inst        69208234                       # Total bandwidth to/from this memory (bytes/s)
system.mem_ctrls.bw_total::cpu27.data        20133304                       # Total bandwidth to/from this memory (bytes/s)
system.mem_ctrls.bw_total::cpu28.inst        70466566                       # Total bandwidth to/from this memory (bytes/s)
system.mem_ctrls.bw_total::cpu28.data        21391636                       # Total bandwidth to/from this memory (bytes/s)
system.mem_ctrls.bw_total::cpu29.inst        66691571                       # Total bandwidth to/from this memory (bytes/s)
system.mem_ctrls.bw_total::cpu29.data        20133304                       # Total bandwidth to/from this memory (bytes/s)
system.mem_ctrls.bw_total::cpu30.inst        67949903                       # Total bandwidth to/from this memory (bytes/s)
system.mem_ctrls.bw_total::cpu30.data        18874973                       # Total bandwidth to/from this memory (bytes/s)
system.mem_ctrls.bw_total::cpu31.inst        66691571                       # Total bandwidth to/from this memory (bytes/s)
system.mem_ctrls.bw_total::cpu31.data        21391636                       # Total bandwidth to/from this memory (bytes/s)
system.mem_ctrls.bw_total::total           3995202611                       # Total bandwidth to/from this memory (bytes/s)
system.mem_ctrls.readReqs                        3143                       # Number of read requests accepted
system.mem_ctrls.writeReqs                         33                       # Number of write requests accepted
system.mem_ctrls.readBursts                      3143                       # Number of DRAM read bursts, including those serviced by the write queue
system.mem_ctrls.writeBursts                       33                       # Number of DRAM write bursts, including those merged in the write queue
system.mem_ctrls.bytesReadDRAM                 199104                       # Total number of bytes read from DRAM
system.mem_ctrls.bytesReadWrQ                    2048                       # Total number of bytes read from write queue
system.mem_ctrls.bytesWritten                    1024                       # Total number of bytes written to DRAM
system.mem_ctrls.bytesReadSys                  201152                       # Total read bytes from the system interface side
system.mem_ctrls.bytesWrittenSys                 2112                       # Total written bytes from the system interface side
system.mem_ctrls.servicedByWrQ                     32                       # Number of DRAM read bursts serviced by the write queue
system.mem_ctrls.mergedWrBursts                     0                       # Number of DRAM write bursts merged with an existing one
system.mem_ctrls.neitherReadNorWriteReqs           24                       # Number of requests that are neither read nor write
system.mem_ctrls.perBankRdBursts::0               369                       # Per bank write bursts
system.mem_ctrls.perBankRdBursts::1              1099                       # Per bank write bursts
system.mem_ctrls.perBankRdBursts::2               494                       # Per bank write bursts
system.mem_ctrls.perBankRdBursts::3               356                       # Per bank write bursts
system.mem_ctrls.perBankRdBursts::4               147                       # Per bank write bursts
system.mem_ctrls.perBankRdBursts::5               146                       # Per bank write bursts
system.mem_ctrls.perBankRdBursts::6               221                       # Per bank write bursts
system.mem_ctrls.perBankRdBursts::7                33                       # Per bank write bursts
system.mem_ctrls.perBankRdBursts::8                14                       # Per bank write bursts
system.mem_ctrls.perBankRdBursts::9                10                       # Per bank write bursts
system.mem_ctrls.perBankRdBursts::10                0                       # Per bank write bursts
system.mem_ctrls.perBankRdBursts::11               14                       # Per bank write bursts
system.mem_ctrls.perBankRdBursts::12                9                       # Per bank write bursts
system.mem_ctrls.perBankRdBursts::13               38                       # Per bank write bursts
system.mem_ctrls.perBankRdBursts::14               40                       # Per bank write bursts
system.mem_ctrls.perBankRdBursts::15              121                       # Per bank write bursts
system.mem_ctrls.perBankWrBursts::0                 0                       # Per bank write bursts
system.mem_ctrls.perBankWrBursts::1                 0                       # Per bank write bursts
system.mem_ctrls.perBankWrBursts::2                 1                       # Per bank write bursts
system.mem_ctrls.perBankWrBursts::3                 1                       # Per bank write bursts
system.mem_ctrls.perBankWrBursts::4                12                       # Per bank write bursts
system.mem_ctrls.perBankWrBursts::5                 0                       # Per bank write bursts
system.mem_ctrls.perBankWrBursts::6                 0                       # Per bank write bursts
system.mem_ctrls.perBankWrBursts::7                 0                       # Per bank write bursts
system.mem_ctrls.perBankWrBursts::8                 0                       # Per bank write bursts
system.mem_ctrls.perBankWrBursts::9                 0                       # Per bank write bursts
system.mem_ctrls.perBankWrBursts::10                0                       # Per bank write bursts
system.mem_ctrls.perBankWrBursts::11                0                       # Per bank write bursts
system.mem_ctrls.perBankWrBursts::12                0                       # Per bank write bursts
system.mem_ctrls.perBankWrBursts::13                0                       # Per bank write bursts
system.mem_ctrls.perBankWrBursts::14                0                       # Per bank write bursts
system.mem_ctrls.perBankWrBursts::15                2                       # Per bank write bursts
system.mem_ctrls.numRdRetry                       497                       # Number of times read queue was full causing retry
system.mem_ctrls.numWrRetry                         0                       # Number of times write queue was full causing retry
system.mem_ctrls.totGap                      50854500                       # Total gap between requests
system.mem_ctrls.readPktSize::0                     0                       # Read request sizes (log2)
system.mem_ctrls.readPktSize::1                     0                       # Read request sizes (log2)
system.mem_ctrls.readPktSize::2                     0                       # Read request sizes (log2)
system.mem_ctrls.readPktSize::3                     0                       # Read request sizes (log2)
system.mem_ctrls.readPktSize::4                     0                       # Read request sizes (log2)
system.mem_ctrls.readPktSize::5                     0                       # Read request sizes (log2)
system.mem_ctrls.readPktSize::6                  3143                       # Read request sizes (log2)
system.mem_ctrls.writePktSize::0                    0                       # Write request sizes (log2)
system.mem_ctrls.writePktSize::1                    0                       # Write request sizes (log2)
system.mem_ctrls.writePktSize::2                    0                       # Write request sizes (log2)
system.mem_ctrls.writePktSize::3                    0                       # Write request sizes (log2)
system.mem_ctrls.writePktSize::4                    0                       # Write request sizes (log2)
system.mem_ctrls.writePktSize::5                    0                       # Write request sizes (log2)
system.mem_ctrls.writePktSize::6                   33                       # Write request sizes (log2)
system.mem_ctrls.rdQLenPdf::0                     463                       # What read queue length does an incoming req see
system.mem_ctrls.rdQLenPdf::1                     318                       # What read queue length does an incoming req see
system.mem_ctrls.rdQLenPdf::2                     122                       # What read queue length does an incoming req see
system.mem_ctrls.rdQLenPdf::3                      64                       # What read queue length does an incoming req see
system.mem_ctrls.rdQLenPdf::4                      55                       # What read queue length does an incoming req see
system.mem_ctrls.rdQLenPdf::5                      73                       # What read queue length does an incoming req see
system.mem_ctrls.rdQLenPdf::6                     109                       # What read queue length does an incoming req see
system.mem_ctrls.rdQLenPdf::7                     115                       # What read queue length does an incoming req see
system.mem_ctrls.rdQLenPdf::8                     166                       # What read queue length does an incoming req see
system.mem_ctrls.rdQLenPdf::9                     180                       # What read queue length does an incoming req see
system.mem_ctrls.rdQLenPdf::10                    181                       # What read queue length does an incoming req see
system.mem_ctrls.rdQLenPdf::11                    162                       # What read queue length does an incoming req see
system.mem_ctrls.rdQLenPdf::12                    132                       # What read queue length does an incoming req see
system.mem_ctrls.rdQLenPdf::13                     94                       # What read queue length does an incoming req see
system.mem_ctrls.rdQLenPdf::14                    103                       # What read queue length does an incoming req see
system.mem_ctrls.rdQLenPdf::15                     65                       # What read queue length does an incoming req see
system.mem_ctrls.rdQLenPdf::16                     39                       # What read queue length does an incoming req see
system.mem_ctrls.rdQLenPdf::17                     36                       # What read queue length does an incoming req see
system.mem_ctrls.rdQLenPdf::18                     21                       # What read queue length does an incoming req see
system.mem_ctrls.rdQLenPdf::19                     12                       # What read queue length does an incoming req see
system.mem_ctrls.rdQLenPdf::20                      9                       # What read queue length does an incoming req see
system.mem_ctrls.rdQLenPdf::21                      5                       # What read queue length does an incoming req see
system.mem_ctrls.rdQLenPdf::22                      4                       # What read queue length does an incoming req see
system.mem_ctrls.rdQLenPdf::23                      6                       # What read queue length does an incoming req see
system.mem_ctrls.rdQLenPdf::24                      5                       # What read queue length does an incoming req see
system.mem_ctrls.rdQLenPdf::25                      6                       # What read queue length does an incoming req see
system.mem_ctrls.rdQLenPdf::26                      9                       # What read queue length does an incoming req see
system.mem_ctrls.rdQLenPdf::27                      8                       # What read queue length does an incoming req see
system.mem_ctrls.rdQLenPdf::28                     20                       # What read queue length does an incoming req see
system.mem_ctrls.rdQLenPdf::29                      8                       # What read queue length does an incoming req see
system.mem_ctrls.rdQLenPdf::30                     12                       # What read queue length does an incoming req see
system.mem_ctrls.rdQLenPdf::31                    509                       # What read queue length does an incoming req see
system.mem_ctrls.wrQLenPdf::0                       1                       # What write queue length does an incoming req see
system.mem_ctrls.wrQLenPdf::1                       1                       # What write queue length does an incoming req see
system.mem_ctrls.wrQLenPdf::2                       1                       # What write queue length does an incoming req see
system.mem_ctrls.wrQLenPdf::3                       1                       # What write queue length does an incoming req see
system.mem_ctrls.wrQLenPdf::4                       1                       # What write queue length does an incoming req see
system.mem_ctrls.wrQLenPdf::5                       1                       # What write queue length does an incoming req see
system.mem_ctrls.wrQLenPdf::6                       1                       # What write queue length does an incoming req see
system.mem_ctrls.wrQLenPdf::7                       1                       # What write queue length does an incoming req see
system.mem_ctrls.wrQLenPdf::8                       1                       # What write queue length does an incoming req see
system.mem_ctrls.wrQLenPdf::9                       1                       # What write queue length does an incoming req see
system.mem_ctrls.wrQLenPdf::10                      1                       # What write queue length does an incoming req see
system.mem_ctrls.wrQLenPdf::11                      1                       # What write queue length does an incoming req see
system.mem_ctrls.wrQLenPdf::12                      1                       # What write queue length does an incoming req see
system.mem_ctrls.wrQLenPdf::13                      1                       # What write queue length does an incoming req see
system.mem_ctrls.wrQLenPdf::14                      1                       # What write queue length does an incoming req see
system.mem_ctrls.wrQLenPdf::15                      1                       # What write queue length does an incoming req see
system.mem_ctrls.wrQLenPdf::16                      1                       # What write queue length does an incoming req see
system.mem_ctrls.wrQLenPdf::17                      1                       # What write queue length does an incoming req see
system.mem_ctrls.wrQLenPdf::18                      1                       # What write queue length does an incoming req see
system.mem_ctrls.wrQLenPdf::19                      1                       # What write queue length does an incoming req see
system.mem_ctrls.wrQLenPdf::20                      1                       # What write queue length does an incoming req see
system.mem_ctrls.wrQLenPdf::21                      1                       # What write queue length does an incoming req see
system.mem_ctrls.wrQLenPdf::22                      1                       # What write queue length does an incoming req see
system.mem_ctrls.wrQLenPdf::23                      1                       # What write queue length does an incoming req see
system.mem_ctrls.wrQLenPdf::24                      1                       # What write queue length does an incoming req see
system.mem_ctrls.wrQLenPdf::25                      1                       # What write queue length does an incoming req see
system.mem_ctrls.wrQLenPdf::26                      1                       # What write queue length does an incoming req see
system.mem_ctrls.wrQLenPdf::27                      1                       # What write queue length does an incoming req see
system.mem_ctrls.wrQLenPdf::28                      1                       # What write queue length does an incoming req see
system.mem_ctrls.wrQLenPdf::29                      1                       # What write queue length does an incoming req see
system.mem_ctrls.wrQLenPdf::30                      1                       # What write queue length does an incoming req see
system.mem_ctrls.wrQLenPdf::31                      1                       # What write queue length does an incoming req see
system.mem_ctrls.wrQLenPdf::32                      1                       # What write queue length does an incoming req see
system.mem_ctrls.wrQLenPdf::33                      0                       # What write queue length does an incoming req see
system.mem_ctrls.wrQLenPdf::34                      0                       # What write queue length does an incoming req see
system.mem_ctrls.wrQLenPdf::35                      0                       # What write queue length does an incoming req see
system.mem_ctrls.wrQLenPdf::36                      0                       # What write queue length does an incoming req see
system.mem_ctrls.wrQLenPdf::37                      0                       # What write queue length does an incoming req see
system.mem_ctrls.wrQLenPdf::38                      0                       # What write queue length does an incoming req see
system.mem_ctrls.wrQLenPdf::39                      0                       # What write queue length does an incoming req see
system.mem_ctrls.wrQLenPdf::40                      0                       # What write queue length does an incoming req see
system.mem_ctrls.wrQLenPdf::41                      0                       # What write queue length does an incoming req see
system.mem_ctrls.wrQLenPdf::42                      0                       # What write queue length does an incoming req see
system.mem_ctrls.wrQLenPdf::43                      0                       # What write queue length does an incoming req see
system.mem_ctrls.wrQLenPdf::44                      0                       # What write queue length does an incoming req see
system.mem_ctrls.wrQLenPdf::45                      0                       # What write queue length does an incoming req see
system.mem_ctrls.wrQLenPdf::46                      0                       # What write queue length does an incoming req see
system.mem_ctrls.wrQLenPdf::47                      0                       # What write queue length does an incoming req see
system.mem_ctrls.wrQLenPdf::48                      0                       # What write queue length does an incoming req see
system.mem_ctrls.wrQLenPdf::49                      0                       # What write queue length does an incoming req see
system.mem_ctrls.wrQLenPdf::50                      0                       # What write queue length does an incoming req see
system.mem_ctrls.wrQLenPdf::51                      0                       # What write queue length does an incoming req see
system.mem_ctrls.wrQLenPdf::52                      0                       # What write queue length does an incoming req see
system.mem_ctrls.wrQLenPdf::53                      0                       # What write queue length does an incoming req see
system.mem_ctrls.wrQLenPdf::54                      0                       # What write queue length does an incoming req see
system.mem_ctrls.wrQLenPdf::55                      0                       # What write queue length does an incoming req see
system.mem_ctrls.wrQLenPdf::56                      0                       # What write queue length does an incoming req see
system.mem_ctrls.wrQLenPdf::57                      0                       # What write queue length does an incoming req see
system.mem_ctrls.wrQLenPdf::58                      0                       # What write queue length does an incoming req see
system.mem_ctrls.wrQLenPdf::59                      0                       # What write queue length does an incoming req see
system.mem_ctrls.wrQLenPdf::60                      0                       # What write queue length does an incoming req see
system.mem_ctrls.wrQLenPdf::61                      0                       # What write queue length does an incoming req see
system.mem_ctrls.wrQLenPdf::62                      0                       # What write queue length does an incoming req see
system.mem_ctrls.wrQLenPdf::63                      0                       # What write queue length does an incoming req see
system.mem_ctrls.bytesPerActivate::samples          675                       # Bytes accessed per row activation
system.mem_ctrls.bytesPerActivate::mean    293.167407                       # Bytes accessed per row activation
system.mem_ctrls.bytesPerActivate::gmean   152.450961                       # Bytes accessed per row activation
system.mem_ctrls.bytesPerActivate::stdev   354.458956                       # Bytes accessed per row activation
system.mem_ctrls.bytesPerActivate::0-127          360     53.33%     53.33% # Bytes accessed per row activation
system.mem_ctrls.bytesPerActivate::128-255          107     15.85%     69.19% # Bytes accessed per row activation
system.mem_ctrls.bytesPerActivate::256-383           33      4.89%     74.07% # Bytes accessed per row activation
system.mem_ctrls.bytesPerActivate::384-511           20      2.96%     77.04% # Bytes accessed per row activation
system.mem_ctrls.bytesPerActivate::512-639           17      2.52%     79.56% # Bytes accessed per row activation
system.mem_ctrls.bytesPerActivate::640-767           18      2.67%     82.22% # Bytes accessed per row activation
system.mem_ctrls.bytesPerActivate::768-895           10      1.48%     83.70% # Bytes accessed per row activation
system.mem_ctrls.bytesPerActivate::896-1023           12      1.78%     85.48% # Bytes accessed per row activation
system.mem_ctrls.bytesPerActivate::1024-1151           98     14.52%    100.00% # Bytes accessed per row activation
system.mem_ctrls.bytesPerActivate::total          675                       # Bytes accessed per row activation
system.mem_ctrls.rdPerTurnAround::samples            1                       # Reads before turning the bus around for writes
system.mem_ctrls.rdPerTurnAround::mean           3092                       # Reads before turning the bus around for writes
system.mem_ctrls.rdPerTurnAround::gmean   3092.000000                       # Reads before turning the bus around for writes
system.mem_ctrls.rdPerTurnAround::stdev           nan                       # Reads before turning the bus around for writes
system.mem_ctrls.rdPerTurnAround::3072-3199            1    100.00%    100.00% # Reads before turning the bus around for writes
system.mem_ctrls.rdPerTurnAround::total             1                       # Reads before turning the bus around for writes
system.mem_ctrls.wrPerTurnAround::samples            1                       # Writes before turning the bus around for reads
system.mem_ctrls.wrPerTurnAround::mean             16                       # Writes before turning the bus around for reads
system.mem_ctrls.wrPerTurnAround::gmean     16.000000                       # Writes before turning the bus around for reads
system.mem_ctrls.wrPerTurnAround::stdev           nan                       # Writes before turning the bus around for reads
system.mem_ctrls.wrPerTurnAround::16                1    100.00%    100.00% # Writes before turning the bus around for reads
system.mem_ctrls.wrPerTurnAround::total             1                       # Writes before turning the bus around for reads
system.mem_ctrls.totQLat                    216340250                       # Total ticks spent queuing
system.mem_ctrls.totMemAccLat               274671500                       # Total ticks spent from burst creation until serviced by the DRAM
system.mem_ctrls.totBusLat                   15555000                       # Total ticks spent in databus transfers
system.mem_ctrls.avgQLat                     69540.42                       # Average queueing delay per DRAM burst
system.mem_ctrls.avgBusLat                    5000.00                       # Average bus latency per DRAM burst
system.mem_ctrls.avgMemAccLat                88290.42                       # Average memory access latency per DRAM burst
system.mem_ctrls.avgRdBW                      3914.67                       # Average DRAM read bandwidth in MiByte/s
system.mem_ctrls.avgWrBW                        20.13                       # Average achieved write bandwidth in MiByte/s
system.mem_ctrls.avgRdBWSys                   3954.94                       # Average system read bandwidth in MiByte/s
system.mem_ctrls.avgWrBWSys                     41.52                       # Average system write bandwidth in MiByte/s
system.mem_ctrls.peakBW                      12800.00                       # Theoretical peak bandwidth in MiByte/s
system.mem_ctrls.busUtil                        30.74                       # Data bus utilization in percentage
system.mem_ctrls.busUtilRead                    30.58                       # Data bus utilization in percentage for reads
system.mem_ctrls.busUtilWrite                    0.16                       # Data bus utilization in percentage for writes
system.mem_ctrls.avgRdQLen                       6.44                       # Average read queue length when enqueuing
system.mem_ctrls.avgWrQLen                       9.92                       # Average write queue length when enqueuing
system.mem_ctrls.readRowHits                     2439                       # Number of row buffer hits during reads
system.mem_ctrls.writeRowHits                       2                       # Number of row buffer hits during writes
system.mem_ctrls.readRowHitRate                 78.40                       # Row buffer hit rate for reads
system.mem_ctrls.writeRowHitRate                 6.06                       # Row buffer hit rate for writes
system.mem_ctrls.avgGap                      16012.12                       # Average gap between requests
system.mem_ctrls.pageHitRate                    77.64                       # Row buffer hit rate, read and write combined
system.mem_ctrls_0.actEnergy                  4528440                       # Energy for activate commands per rank (pJ)
system.mem_ctrls_0.preEnergy                  2470875                       # Energy for precharge commands per rank (pJ)
system.mem_ctrls_0.readEnergy                21496800                       # Energy for read commands per rank (pJ)
system.mem_ctrls_0.writeEnergy                      0                       # Energy for write commands per rank (pJ)
system.mem_ctrls_0.refreshEnergy              3051360                       # Energy for refresh commands per rank (pJ)
system.mem_ctrls_0.actBackEnergy             31918005                       # Energy for active background per rank (pJ)
system.mem_ctrls_0.preBackEnergy               192750                       # Energy for precharge background per rank (pJ)
system.mem_ctrls_0.totalEnergy               63658230                       # Total energy per rank (pJ)
system.mem_ctrls_0.averagePower           1354.862829                       # Core power per rank (mW)
system.mem_ctrls_0.memoryStateTime::IDLE       169500                       # Time in different power states
system.mem_ctrls_0.memoryStateTime::REF       1560000                       # Time in different power states
system.mem_ctrls_0.memoryStateTime::PRE_PDN            0                       # Time in different power states
system.mem_ctrls_0.memoryStateTime::ACT      45268250                       # Time in different power states
system.mem_ctrls_0.memoryStateTime::ACT_PDN            0                       # Time in different power states
system.mem_ctrls_1.actEnergy                   226800                       # Energy for activate commands per rank (pJ)
system.mem_ctrls_1.preEnergy                   123750                       # Energy for precharge commands per rank (pJ)
system.mem_ctrls_1.readEnergy                 1560000                       # Energy for read commands per rank (pJ)
system.mem_ctrls_1.writeEnergy                      0                       # Energy for write commands per rank (pJ)
system.mem_ctrls_1.refreshEnergy              3051360                       # Energy for refresh commands per rank (pJ)
system.mem_ctrls_1.actBackEnergy             30222540                       # Energy for active background per rank (pJ)
system.mem_ctrls_1.preBackEnergy              1675500                       # Energy for precharge background per rank (pJ)
system.mem_ctrls_1.totalEnergy               36859950                       # Total energy per rank (pJ)
system.mem_ctrls_1.averagePower            784.629876                       # Core power per rank (mW)
system.mem_ctrls_1.memoryStateTime::IDLE      2771250                       # Time in different power states
system.mem_ctrls_1.memoryStateTime::REF       1560000                       # Time in different power states
system.mem_ctrls_1.memoryStateTime::PRE_PDN            0                       # Time in different power states
system.mem_ctrls_1.memoryStateTime::ACT      42832750                       # Time in different power states
system.mem_ctrls_1.memoryStateTime::ACT_PDN            0                       # Time in different power states
system.cpu00.branchPred.lookups                 10796                       # Number of BP lookups
system.cpu00.branchPred.condPredicted            7995                       # Number of conditional branches predicted
system.cpu00.branchPred.condIncorrect             981                       # Number of conditional branches incorrect
system.cpu00.branchPred.BTBLookups               7417                       # Number of BTB lookups
system.cpu00.branchPred.BTBHits                  3631                       # Number of BTB hits
system.cpu00.branchPred.BTBCorrect                  0                       # Number of correct BTB predictions (this stat may not work properly.
system.cpu00.branchPred.BTBHitPct           48.955103                       # BTB Hit Percentage
system.cpu00.branchPred.usedRAS                  1138                       # Number of times the RAS was used to get a target.
system.cpu00.branchPred.RASInCorrect               12                       # Number of incorrect RAS predictions.
system.cpu_voltage_domain.voltage                   1                       # Voltage in Volts
system.cpu_clk_domain.clock                       500                       # Clock period in ticks
system.cpu00.dstage2_mmu.stage2_tlb.walker.walks            0                       # Table walker walks requested
system.cpu00.dstage2_mmu.stage2_tlb.walker.walkRequestOrigin_Requested::Data            0                       # Table walker requests started/completed, data/inst
system.cpu00.dstage2_mmu.stage2_tlb.walker.walkRequestOrigin_Requested::Inst            0                       # Table walker requests started/completed, data/inst
system.cpu00.dstage2_mmu.stage2_tlb.walker.walkRequestOrigin_Requested::total            0                       # Table walker requests started/completed, data/inst
system.cpu00.dstage2_mmu.stage2_tlb.walker.walkRequestOrigin_Completed::Data            0                       # Table walker requests started/completed, data/inst
system.cpu00.dstage2_mmu.stage2_tlb.walker.walkRequestOrigin_Completed::Inst            0                       # Table walker requests started/completed, data/inst
system.cpu00.dstage2_mmu.stage2_tlb.walker.walkRequestOrigin_Completed::total            0                       # Table walker requests started/completed, data/inst
system.cpu00.dstage2_mmu.stage2_tlb.walker.walkRequestOrigin::total            0                       # Table walker requests started/completed, data/inst
system.cpu00.dstage2_mmu.stage2_tlb.inst_hits            0                       # ITB inst hits
system.cpu00.dstage2_mmu.stage2_tlb.inst_misses            0                       # ITB inst misses
system.cpu00.dstage2_mmu.stage2_tlb.read_hits            0                       # DTB read hits
system.cpu00.dstage2_mmu.stage2_tlb.read_misses            0                       # DTB read misses
system.cpu00.dstage2_mmu.stage2_tlb.write_hits            0                       # DTB write hits
system.cpu00.dstage2_mmu.stage2_tlb.write_misses            0                       # DTB write misses
system.cpu00.dstage2_mmu.stage2_tlb.flush_tlb            0                       # Number of times complete TLB was flushed
system.cpu00.dstage2_mmu.stage2_tlb.flush_tlb_mva            0                       # Number of times TLB was flushed by MVA
system.cpu00.dstage2_mmu.stage2_tlb.flush_tlb_mva_asid            0                       # Number of times TLB was flushed by MVA & ASID
system.cpu00.dstage2_mmu.stage2_tlb.flush_tlb_asid            0                       # Number of times TLB was flushed by ASID
system.cpu00.dstage2_mmu.stage2_tlb.flush_entries            0                       # Number of entries that have been flushed from TLB
system.cpu00.dstage2_mmu.stage2_tlb.align_faults            0                       # Number of TLB faults due to alignment restrictions
system.cpu00.dstage2_mmu.stage2_tlb.prefetch_faults            0                       # Number of TLB faults due to prefetch
system.cpu00.dstage2_mmu.stage2_tlb.domain_faults            0                       # Number of TLB faults due to domain restrictions
system.cpu00.dstage2_mmu.stage2_tlb.perms_faults            0                       # Number of TLB faults due to permissions restrictions
system.cpu00.dstage2_mmu.stage2_tlb.read_accesses            0                       # DTB read accesses
system.cpu00.dstage2_mmu.stage2_tlb.write_accesses            0                       # DTB write accesses
system.cpu00.dstage2_mmu.stage2_tlb.inst_accesses            0                       # ITB inst accesses
system.cpu00.dstage2_mmu.stage2_tlb.hits            0                       # DTB hits
system.cpu00.dstage2_mmu.stage2_tlb.misses            0                       # DTB misses
system.cpu00.dstage2_mmu.stage2_tlb.accesses            0                       # DTB accesses
system.cpu00.dtb.walker.walks                       0                       # Table walker walks requested
system.cpu00.dtb.walker.walkRequestOrigin_Requested::Data            0                       # Table walker requests started/completed, data/inst
system.cpu00.dtb.walker.walkRequestOrigin_Requested::Inst            0                       # Table walker requests started/completed, data/inst
system.cpu00.dtb.walker.walkRequestOrigin_Requested::total            0                       # Table walker requests started/completed, data/inst
system.cpu00.dtb.walker.walkRequestOrigin_Completed::Data            0                       # Table walker requests started/completed, data/inst
system.cpu00.dtb.walker.walkRequestOrigin_Completed::Inst            0                       # Table walker requests started/completed, data/inst
system.cpu00.dtb.walker.walkRequestOrigin_Completed::total            0                       # Table walker requests started/completed, data/inst
system.cpu00.dtb.walker.walkRequestOrigin::total            0                       # Table walker requests started/completed, data/inst
system.cpu00.dtb.inst_hits                          0                       # ITB inst hits
system.cpu00.dtb.inst_misses                        0                       # ITB inst misses
system.cpu00.dtb.read_hits                          0                       # DTB read hits
system.cpu00.dtb.read_misses                        0                       # DTB read misses
system.cpu00.dtb.write_hits                         0                       # DTB write hits
system.cpu00.dtb.write_misses                       0                       # DTB write misses
system.cpu00.dtb.flush_tlb                          0                       # Number of times complete TLB was flushed
system.cpu00.dtb.flush_tlb_mva                      0                       # Number of times TLB was flushed by MVA
system.cpu00.dtb.flush_tlb_mva_asid                 0                       # Number of times TLB was flushed by MVA & ASID
system.cpu00.dtb.flush_tlb_asid                     0                       # Number of times TLB was flushed by ASID
system.cpu00.dtb.flush_entries                      0                       # Number of entries that have been flushed from TLB
system.cpu00.dtb.align_faults                       0                       # Number of TLB faults due to alignment restrictions
system.cpu00.dtb.prefetch_faults                    0                       # Number of TLB faults due to prefetch
system.cpu00.dtb.domain_faults                      0                       # Number of TLB faults due to domain restrictions
system.cpu00.dtb.perms_faults                       0                       # Number of TLB faults due to permissions restrictions
system.cpu00.dtb.read_accesses                      0                       # DTB read accesses
system.cpu00.dtb.write_accesses                     0                       # DTB write accesses
system.cpu00.dtb.inst_accesses                      0                       # ITB inst accesses
system.cpu00.dtb.hits                               0                       # DTB hits
system.cpu00.dtb.misses                             0                       # DTB misses
system.cpu00.dtb.accesses                           0                       # DTB accesses
system.cpu00.istage2_mmu.stage2_tlb.walker.walks            0                       # Table walker walks requested
system.cpu00.istage2_mmu.stage2_tlb.walker.walkRequestOrigin_Requested::Data            0                       # Table walker requests started/completed, data/inst
system.cpu00.istage2_mmu.stage2_tlb.walker.walkRequestOrigin_Requested::Inst            0                       # Table walker requests started/completed, data/inst
system.cpu00.istage2_mmu.stage2_tlb.walker.walkRequestOrigin_Requested::total            0                       # Table walker requests started/completed, data/inst
system.cpu00.istage2_mmu.stage2_tlb.walker.walkRequestOrigin_Completed::Data            0                       # Table walker requests started/completed, data/inst
[...]
system.membus.snoop_fanout::3                       0      0.00%      0.00% # Request fanout histogram
system.membus.snoop_fanout::4                       0      0.00%      0.00% # Request fanout histogram
system.membus.snoop_fanout::5                       0      0.00%      0.00% # Request fanout histogram
system.membus.snoop_fanout::6                       0      0.00%      0.00% # Request fanout histogram
system.membus.snoop_fanout::7                       0      0.00%      0.00% # Request fanout histogram
system.membus.snoop_fanout::8                       0      0.00%      0.00% # Request fanout histogram
system.membus.snoop_fanout::9                       0      0.00%      0.00% # Request fanout histogram
system.membus.snoop_fanout::10                      0      0.00%      0.00% # Request fanout histogram
system.membus.snoop_fanout::11                      0      0.00%      0.00% # Request fanout histogram
system.membus.snoop_fanout::12                      0      0.00%      0.00% # Request fanout histogram
system.membus.snoop_fanout::13                      0      0.00%      0.00% # Request fanout histogram
system.membus.snoop_fanout::14                      0      0.00%      0.00% # Request fanout histogram
system.membus.snoop_fanout::15                      0      0.00%      0.00% # Request fanout histogram
system.membus.snoop_fanout::16                      0      0.00%      0.00% # Request fanout histogram
system.membus.snoop_fanout::17                      0      0.00%      0.00% # Request fanout histogram
system.membus.snoop_fanout::18                      0      0.00%      0.00% # Request fanout histogram
system.membus.snoop_fanout::19                      0      0.00%      0.00% # Request fanout histogram
system.membus.snoop_fanout::20                      0      0.00%      0.00% # Request fanout histogram
system.membus.snoop_fanout::21                      0      0.00%      0.00% # Request fanout histogram
system.membus.snoop_fanout::22                      0      0.00%      0.00% # Request fanout histogram
system.membus.snoop_fanout::23                      0      0.00%      0.00% # Request fanout histogram
system.membus.snoop_fanout::24                      0      0.00%      0.00% # Request fanout histogram
system.membus.snoop_fanout::25                      0      0.00%      0.00% # Request fanout histogram
system.membus.snoop_fanout::26                      0      0.00%      0.00% # Request fanout histogram
system.membus.snoop_fanout::27                      0      0.00%      0.00% # Request fanout histogram
system.membus.snoop_fanout::28                      0      0.00%      0.00% # Request fanout histogram
system.membus.snoop_fanout::29                      0      0.00%      0.00% # Request fanout histogram
system.membus.snoop_fanout::30                      0      0.00%      0.00% # Request fanout histogram
system.membus.snoop_fanout::31                      0      0.00%      0.00% # Request fanout histogram
system.membus.snoop_fanout::32                      0      0.00%      0.00% # Request fanout histogram
system.membus.snoop_fanout::33                      0      0.00%      0.00% # Request fanout histogram
system.membus.snoop_fanout::34                      0      0.00%      0.00% # Request fanout histogram
system.membus.snoop_fanout::35                      0      0.00%      0.00% # Request fanout histogram
system.membus.snoop_fanout::36                      0      0.00%      0.00% # Request fanout histogram
system.membus.snoop_fanout::37                      0      0.00%      0.00% # Request fanout histogram
system.membus.snoop_fanout::38                      0      0.00%      0.00% # Request fanout histogram
system.membus.snoop_fanout::39                      0      0.00%      0.00% # Request fanout histogram
system.membus.snoop_fanout::40                      0      0.00%      0.00% # Request fanout histogram
system.membus.snoop_fanout::41                      0      0.00%      0.00% # Request fanout histogram
system.membus.snoop_fanout::42                      0      0.00%      0.00% # Request fanout histogram
system.membus.snoop_fanout::43                      0      0.00%      0.00% # Request fanout histogram
system.membus.snoop_fanout::44                      0      0.00%      0.00% # Request fanout histogram
system.membus.snoop_fanout::45                      0      0.00%      0.00% # Request fanout histogram
system.membus.snoop_fanout::46                      0      0.00%      0.00% # Request fanout histogram
system.membus.snoop_fanout::47                      0      0.00%      0.00% # Request fanout histogram
system.membus.snoop_fanout::48                      0      0.00%      0.00% # Request fanout histogram
system.membus.snoop_fanout::49                      0      0.00%      0.00% # Request fanout histogram
system.membus.snoop_fanout::50                      0      0.00%      0.00% # Request fanout histogram
system.membus.snoop_fanout::51                      0      0.00%      0.00% # Request fanout histogram
system.membus.snoop_fanout::52                      0      0.00%      0.00% # Request fanout histogram
system.membus.snoop_fanout::53                      0      0.00%      0.00% # Request fanout histogram
system.membus.snoop_fanout::54                      0      0.00%      0.00% # Request fanout histogram
system.membus.snoop_fanout::55                      0      0.00%      0.00% # Request fanout histogram
system.membus.snoop_fanout::56                      0      0.00%      0.00% # Request fanout histogram
system.membus.snoop_fanout::57                      0      0.00%      0.00% # Request fanout histogram
system.membus.snoop_fanout::58                      0      0.00%      0.00% # Request fanout histogram
system.membus.snoop_fanout::59                      0      0.00%      0.00% # Request fanout histogram
system.membus.snoop_fanout::60                      0      0.00%      0.00% # Request fanout histogram
system.membus.snoop_fanout::61                      0      0.00%      0.00% # Request fanout histogram
system.membus.snoop_fanout::62                      0      0.00%      0.00% # Request fanout histogram
system.membus.snoop_fanout::63                   5141    100.00%    100.00% # Request fanout histogram
system.membus.snoop_fanout::64                      0      0.00%    100.00% # Request fanout histogram
system.membus.snoop_fanout::overflows               0      0.00%    100.00% # Request fanout histogram
system.membus.snoop_fanout::min_value              63                       # Request fanout histogram
system.membus.snoop_fanout::max_value              63                       # Request fanout histogram
system.membus.snoop_fanout::total                5141                       # Request fanout histogram
system.membus.reqLayer0.occupancy             6083474                       # Layer occupancy (ticks)
system.membus.reqLayer0.utilization              12.0                       # Layer utilization (%)
system.membus.respLayer1.occupancy            3199750                       # Layer occupancy (ticks)
system.membus.respLayer1.utilization              6.3                       # Layer utilization (%)
system.membus.respLayer2.occupancy            2200740                       # Layer occupancy (ticks)
system.membus.respLayer2.utilization              4.3                       # Layer utilization (%)
system.membus.respLayer5.occupancy             271750                       # Layer occupancy (ticks)
system.membus.respLayer5.utilization              0.5                       # Layer utilization (%)
system.membus.respLayer6.occupancy             330971                       # Layer occupancy (ticks)
system.membus.respLayer6.utilization              0.7                       # Layer utilization (%)
system.membus.respLayer9.occupancy             270000                       # Layer occupancy (ticks)
system.membus.respLayer9.utilization              0.5                       # Layer utilization (%)
system.membus.respLayer10.occupancy            436392                       # Layer occupancy (ticks)
system.membus.respLayer10.utilization             0.9                       # Layer utilization (%)
system.membus.respLayer13.occupancy            280500                       # Layer occupancy (ticks)
system.membus.respLayer13.utilization             0.6                       # Layer utilization (%)
system.membus.respLayer14.occupancy            434118                       # Layer occupancy (ticks)
system.membus.respLayer14.utilization             0.9                       # Layer utilization (%)
system.membus.respLayer17.occupancy            274750                       # Layer occupancy (ticks)
system.membus.respLayer17.utilization             0.5                       # Layer utilization (%)
system.membus.respLayer18.occupancy            221744                       # Layer occupancy (ticks)
system.membus.respLayer18.utilization             0.4                       # Layer utilization (%)
system.membus.respLayer21.occupancy            290000                       # Layer occupancy (ticks)
system.membus.respLayer21.utilization             0.6                       # Layer utilization (%)
system.membus.respLayer22.occupancy            382890                       # Layer occupancy (ticks)
system.membus.respLayer22.utilization             0.8                       # Layer utilization (%)
system.membus.respLayer25.occupancy            275250                       # Layer occupancy (ticks)
system.membus.respLayer25.utilization             0.5                       # Layer utilization (%)
system.membus.respLayer26.occupancy            326442                       # Layer occupancy (ticks)
system.membus.respLayer26.utilization             0.6                       # Layer utilization (%)
system.membus.respLayer29.occupancy            270500                       # Layer occupancy (ticks)
system.membus.respLayer29.utilization             0.5                       # Layer utilization (%)
system.membus.respLayer30.occupancy            208000                       # Layer occupancy (ticks)
system.membus.respLayer30.utilization             0.4                       # Layer utilization (%)
system.membus.respLayer33.occupancy            268750                       # Layer occupancy (ticks)
system.membus.respLayer33.utilization             0.5                       # Layer utilization (%)
system.membus.respLayer34.occupancy            219983                       # Layer occupancy (ticks)
system.membus.respLayer34.utilization             0.4                       # Layer utilization (%)
system.membus.respLayer37.occupancy            267250                       # Layer occupancy (ticks)
system.membus.respLayer37.utilization             0.5                       # Layer utilization (%)
system.membus.respLayer38.occupancy            253955                       # Layer occupancy (ticks)
system.membus.respLayer38.utilization             0.5                       # Layer utilization (%)
system.membus.respLayer41.occupancy            273250                       # Layer occupancy (ticks)
system.membus.respLayer41.utilization             0.5                       # Layer utilization (%)
system.membus.respLayer42.occupancy            325668                       # Layer occupancy (ticks)
system.membus.respLayer42.utilization             0.6                       # Layer utilization (%)
system.membus.respLayer45.occupancy            267250                       # Layer occupancy (ticks)
system.membus.respLayer45.utilization             0.5                       # Layer utilization (%)
system.membus.respLayer46.occupancy            241739                       # Layer occupancy (ticks)
system.membus.respLayer46.utilization             0.5                       # Layer utilization (%)
system.membus.respLayer49.occupancy            293250                       # Layer occupancy (ticks)
system.membus.respLayer49.utilization             0.6                       # Layer utilization (%)
system.membus.respLayer50.occupancy            408897                       # Layer occupancy (ticks)
system.membus.respLayer50.utilization             0.8                       # Layer utilization (%)
system.membus.respLayer53.occupancy            289750                       # Layer occupancy (ticks)
system.membus.respLayer53.utilization             0.6                       # Layer utilization (%)
system.membus.respLayer54.occupancy            417380                       # Layer occupancy (ticks)
system.membus.respLayer54.utilization             0.8                       # Layer utilization (%)
system.membus.respLayer57.occupancy            274500                       # Layer occupancy (ticks)
system.membus.respLayer57.utilization             0.5                       # Layer utilization (%)
system.membus.respLayer58.occupancy            320448                       # Layer occupancy (ticks)
system.membus.respLayer58.utilization             0.6                       # Layer utilization (%)
system.membus.respLayer61.occupancy            276250                       # Layer occupancy (ticks)
system.membus.respLayer61.utilization             0.5                       # Layer utilization (%)
system.membus.respLayer62.occupancy            288417                       # Layer occupancy (ticks)
system.membus.respLayer62.utilization             0.6                       # Layer utilization (%)
system.membus.respLayer65.occupancy            270499                       # Layer occupancy (ticks)
system.membus.respLayer65.utilization             0.5                       # Layer utilization (%)
system.membus.respLayer66.occupancy            222978                       # Layer occupancy (ticks)
system.membus.respLayer66.utilization             0.4                       # Layer utilization (%)
system.membus.respLayer69.occupancy            280500                       # Layer occupancy (ticks)
system.membus.respLayer69.utilization             0.6                       # Layer utilization (%)
system.membus.respLayer70.occupancy            344889                       # Layer occupancy (ticks)
system.membus.respLayer70.utilization             0.7                       # Layer utilization (%)
system.membus.respLayer73.occupancy            269250                       # Layer occupancy (ticks)
system.membus.respLayer73.utilization             0.5                       # Layer utilization (%)
system.membus.respLayer74.occupancy            310677                       # Layer occupancy (ticks)
system.membus.respLayer74.utilization             0.6                       # Layer utilization (%)
system.membus.respLayer77.occupancy            267750                       # Layer occupancy (ticks)
system.membus.respLayer77.utilization             0.5                       # Layer utilization (%)
system.membus.respLayer78.occupancy            300669                       # Layer occupancy (ticks)
system.membus.respLayer78.utilization             0.6                       # Layer utilization (%)
system.membus.respLayer81.occupancy            269000                       # Layer occupancy (ticks)
system.membus.respLayer81.utilization             0.5                       # Layer utilization (%)
system.membus.respLayer82.occupancy            330188                       # Layer occupancy (ticks)
system.membus.respLayer82.utilization             0.6                       # Layer utilization (%)
system.membus.respLayer85.occupancy            266750                       # Layer occupancy (ticks)
system.membus.respLayer85.utilization             0.5                       # Layer utilization (%)
system.membus.respLayer86.occupancy            297442                       # Layer occupancy (ticks)
system.membus.respLayer86.utilization             0.6                       # Layer utilization (%)
system.membus.respLayer89.occupancy            283250                       # Layer occupancy (ticks)
system.membus.respLayer89.utilization             0.6                       # Layer utilization (%)
system.membus.respLayer90.occupancy            341677                       # Layer occupancy (ticks)
system.membus.respLayer90.utilization             0.7                       # Layer utilization (%)
system.membus.respLayer93.occupancy            286500                       # Layer occupancy (ticks)
system.membus.respLayer93.utilization             0.6                       # Layer utilization (%)
system.membus.respLayer94.occupancy            287946                       # Layer occupancy (ticks)
system.membus.respLayer94.utilization             0.6                       # Layer utilization (%)
system.membus.respLayer97.occupancy            279000                       # Layer occupancy (ticks)
system.membus.respLayer97.utilization             0.5                       # Layer utilization (%)
system.membus.respLayer98.occupancy            333177                       # Layer occupancy (ticks)
system.membus.respLayer98.utilization             0.7                       # Layer utilization (%)
system.membus.respLayer101.occupancy           288250                       # Layer occupancy (ticks)
system.membus.respLayer101.utilization            0.6                       # Layer utilization (%)
system.membus.respLayer102.occupancy           386186                       # Layer occupancy (ticks)
system.membus.respLayer102.utilization            0.8                       # Layer utilization (%)
system.membus.respLayer105.occupancy           279000                       # Layer occupancy (ticks)
system.membus.respLayer105.utilization            0.5                       # Layer utilization (%)
system.membus.respLayer106.occupancy           331146                       # Layer occupancy (ticks)
system.membus.respLayer106.utilization            0.7                       # Layer utilization (%)
system.membus.respLayer109.occupancy           291500                       # Layer occupancy (ticks)
system.membus.respLayer109.utilization            0.6                       # Layer utilization (%)
system.membus.respLayer110.occupancy           266195                       # Layer occupancy (ticks)
system.membus.respLayer110.utilization            0.5                       # Layer utilization (%)
system.membus.respLayer113.occupancy           291500                       # Layer occupancy (ticks)
system.membus.respLayer113.utilization            0.6                       # Layer utilization (%)
system.membus.respLayer114.occupancy           215737                       # Layer occupancy (ticks)
system.membus.respLayer114.utilization            0.4                       # Layer utilization (%)
system.membus.respLayer117.occupancy           278750                       # Layer occupancy (ticks)
system.membus.respLayer117.utilization            0.5                       # Layer utilization (%)
system.membus.respLayer118.occupancy           338422                       # Layer occupancy (ticks)
system.membus.respLayer118.utilization            0.7                       # Layer utilization (%)
system.membus.respLayer121.occupancy           285250                       # Layer occupancy (ticks)
system.membus.respLayer121.utilization            0.6                       # Layer utilization (%)
system.membus.respLayer122.occupancy           325428                       # Layer occupancy (ticks)
system.membus.respLayer122.utilization            0.6                       # Layer utilization (%)
system.membus.respLayer125.occupancy           279250                       # Layer occupancy (ticks)
system.membus.respLayer125.utilization            0.5                       # Layer utilization (%)
system.membus.respLayer126.occupancy           255190                       # Layer occupancy (ticks)
system.membus.respLayer126.utilization            0.5                       # Layer utilization (%)

---------- End Simulation Statistics   ----------
