
---------- Begin Simulation Statistics ----------
sim_seconds                                  0.000050                       # Number of seconds simulated
sim_ticks                                    49766500                       # Number of ticks simulated
final_tick                                   49766500                       # Number of ticks from beginning of simulation (restored from checkpoints and never reset)
sim_freq                                 1000000000000                       # Frequency of simulated ticks
host_inst_rate                                 156697                       # Simulator instruction rate (inst/s)
host_op_rate                                   164550                       # Simulator op (including micro ops) rate (op/s)
host_tick_rate                               26170961                       # Simulator tick rate (ticks/s)
host_mem_usage                                 728592                       # Number of bytes of host memory used
host_seconds                                     1.90                       # Real time elapsed on the host
sim_insts                                      297969                       # Number of instructions simulated
sim_ops                                        312905                       # Number of ops (including micro ops) simulated
system.voltage_domain.voltage                       1                       # Voltage in Volts
system.clk_domain.clock                          1000                       # Clock period in ticks
system.mem_ctrls.bytes_read::cpu00.inst         39360                       # Number of bytes read from this memory
system.mem_ctrls.bytes_read::cpu00.data         23488                       # Number of bytes read from this memory
system.mem_ctrls.bytes_read::cpu01.inst          3136                       # Number of bytes read from this memory
system.mem_ctrls.bytes_read::cpu01.data          1024                       # Number of bytes read from this memory
system.mem_ctrls.bytes_read::cpu02.inst          3136                       # Number of bytes read from this memory
system.mem_ctrls.bytes_read::cpu02.data          1024                       # Number of bytes read from this memory
system.mem_ctrls.bytes_read::cpu03.inst          3136                       # Number of bytes read from this memory
system.mem_ctrls.bytes_read::cpu03.data          1024                       # Number of bytes read from this memory
system.mem_ctrls.bytes_read::cpu04.inst          3200                       # Number of bytes read from this memory
system.mem_ctrls.bytes_read::cpu04.data          1024                       # Number of bytes read from this memory
system.mem_ctrls.bytes_read::cpu05.inst          3136                       # Number of bytes read from this memory
system.mem_ctrls.bytes_read::cpu05.data          1024                       # Number of bytes read from this memory
system.mem_ctrls.bytes_read::cpu06.inst          3136                       # Number of bytes read from this memory
system.mem_ctrls.bytes_read::cpu06.data          1088                       # Number of bytes read from this memory
system.mem_ctrls.bytes_read::cpu07.inst          3200                       # Number of bytes read from this memory
system.mem_ctrls.bytes_read::cpu07.data          1088                       # Number of bytes read from this memory
system.mem_ctrls.bytes_read::cpu08.inst          3328                       # Number of bytes read from this memory
system.mem_ctrls.bytes_read::cpu08.data          1024                       # Number of bytes read from this memory
system.mem_ctrls.bytes_read::cpu09.inst          3264                       # Number of bytes read from this memory
system.mem_ctrls.bytes_read::cpu09.data          1024                       # Number of bytes read from this memory
system.mem_ctrls.bytes_read::cpu10.inst          3328                       # Number of bytes read from this memory
system.mem_ctrls.bytes_read::cpu10.data          1024                       # Number of bytes read from this memory
system.mem_ctrls.bytes_read::cpu11.inst          3136                       # Number of bytes read from this memory
system.mem_ctrls.bytes_read::cpu11.data           960                       # Number of bytes read from this memory
system.mem_ctrls.bytes_read::cpu12.inst          3392                       # Number of bytes read from this memory
system.mem_ctrls.bytes_read::cpu12.data          1024                       # Number of bytes read from this memory
system.mem_ctrls.bytes_read::cpu13.inst          3392                       # Number of bytes read from this memory
system.mem_ctrls.bytes_read::cpu13.data           960                       # Number of bytes read from this memory
system.mem_ctrls.bytes_read::cpu14.inst          3392                       # Number of bytes read from this memory
system.mem_ctrls.bytes_read::cpu14.data          1024                       # Number of bytes read from this memory
system.mem_ctrls.bytes_read::cpu15.inst          3200                       # Number of bytes read from this memory
system.mem_ctrls.bytes_read::cpu15.data           960                       # Number of bytes read from this memory
system.mem_ctrls.bytes_read::total             126656                       # Number of bytes read from this memory
system.mem_ctrls.bytes_inst_read::cpu00.inst        39360                       # Number of instructions bytes read from this memory
system.mem_ctrls.bytes_inst_read::cpu01.inst         3136                       # Number of instructions bytes read from this memory
system.mem_ctrls.bytes_inst_read::cpu02.inst         3136                       # Number of instructions bytes read from this memory
system.mem_ctrls.bytes_inst_read::cpu03.inst         3136                       # Number of instructions bytes read from this memory
system.mem_ctrls.bytes_inst_read::cpu04.inst         3200                       # Number of instructions bytes read from this memory
system.mem_ctrls.bytes_inst_read::cpu05.inst         3136                       # Number of instructions bytes read from this memory
system.mem_ctrls.bytes_inst_read::cpu06.inst         3136                       # Number of instructions bytes read from this memory
system.mem_ctrls.bytes_inst_read::cpu07.inst         3200                       # Number of instructions bytes read from this memory
system.mem_ctrls.bytes_inst_read::cpu08.inst         3328                       # Number of instructions bytes read from this memory
system.mem_ctrls.bytes_inst_read::cpu09.inst         3264                       # Number of instructions bytes read from this memory
system.mem_ctrls.bytes_inst_read::cpu10.inst         3328                       # Number of instructions bytes read from this memory
system.mem_ctrls.bytes_inst_read::cpu11.inst         3136                       # Number of instructions bytes read from this memory
system.mem_ctrls.bytes_inst_read::cpu12.inst         3392                       # Number of instructions bytes read from this memory
system.mem_ctrls.bytes_inst_read::cpu13.inst         3392                       # Number of instructions bytes read from this memory
system.mem_ctrls.bytes_inst_read::cpu14.inst         3392                       # Number of instructions bytes read from this memory
system.mem_ctrls.bytes_inst_read::cpu15.inst         3200                       # Number of instructions bytes read from this memory
system.mem_ctrls.bytes_inst_read::total         87872                       # Number of instructions bytes read from this memory
system.mem_ctrls.bytes_written::writebacks         1216                       # Number of bytes written to this memory
system.mem_ctrls.bytes_written::total            1216                       # Number of bytes written to this memory
system.mem_ctrls.num_reads::cpu00.inst            615                       # Number of read requests responded to by this memory
system.mem_ctrls.num_reads::cpu00.data            367                       # Number of read requests responded to by this memory
system.mem_ctrls.num_reads::cpu01.inst             49                       # Number of read requests responded to by this memory
system.mem_ctrls.num_reads::cpu01.data             16                       # Number of read requests responded to by this memory
system.mem_ctrls.num_reads::cpu02.inst             49                       # Number of read requests responded to by this memory
system.mem_ctrls.num_reads::cpu02.data             16                       # Number of read requests responded to by this memory
system.mem_ctrls.num_reads::cpu03.inst             49                       # Number of read requests responded to by this memory
system.mem_ctrls.num_reads::cpu03.data             16                       # Number of read requests responded to by this memory
system.mem_ctrls.num_reads::cpu04.inst             50                       # Number of read requests responded to by this memory
system.mem_ctrls.num_reads::cpu04.data             16                       # Number of read requests responded to by this memory
system.mem_ctrls.num_reads::cpu05.inst             49                       # Number of read requests responded to by this memory
system.mem_ctrls.num_reads::cpu05.data             16                       # Number of read requests responded to by this memory
system.mem_ctrls.num_reads::cpu06.inst             49                       # Number of read requests responded to by this memory
system.mem_ctrls.num_reads::cpu06.data             17                       # Number of read requests responded to by this memory
system.mem_ctrls.num_reads::cpu07.inst             50                       # Number of read requests responded to by this memory
system.mem_ctrls.num_reads::cpu07.data             17                       # Number of read requests responded to by this memory
system.mem_ctrls.num_reads::cpu08.inst             52                       # Number of read requests responded to by this memory
system.mem_ctrls.num_reads::cpu08.data             16                       # Number of read requests responded to by this memory
system.mem_ctrls.num_reads::cpu09.inst             51                       # Number of read requests responded to by this memory
system.mem_ctrls.num_reads::cpu09.data             16                       # Number of read requests responded to by this memory
system.mem_ctrls.num_reads::cpu10.inst             52                       # Number of read requests responded to by this memory
system.mem_ctrls.num_reads::cpu10.data             16                       # Number of read requests responded to by this memory
system.mem_ctrls.num_reads::cpu11.inst             49                       # Number of read requests responded to by this memory
system.mem_ctrls.num_reads::cpu11.data             15                       # Number of read requests responded to by this memory
system.mem_ctrls.num_reads::cpu12.inst             53                       # Number of read requests responded to by this memory
system.mem_ctrls.num_reads::cpu12.data             16                       # Number of read requests responded to by this memory
system.mem_ctrls.num_reads::cpu13.inst             53                       # Number of read requests responded to by this memory
system.mem_ctrls.num_reads::cpu13.data             15                       # Number of read requests responded to by this memory
system.mem_ctrls.num_reads::cpu14.inst             53                       # Number of read requests responded to by this memory
system.mem_ctrls.num_reads::cpu14.data             16                       # Number of read requests responded to by this memory
system.mem_ctrls.num_reads::cpu15.inst             50                       # Number of read requests responded to by this memory
system.mem_ctrls.num_reads::cpu15.data             15                       # Number of read requests responded to by this memory
system.mem_ctrls.num_reads::total                1979                       # Number of read requests responded to by this memory
system.mem_ctrls.num_writes::writebacks            19                       # Number of write requests responded to by this memory
system.mem_ctrls.num_writes::total                 19                       # Number of write requests responded to by this memory
system.mem_ctrls.bw_read::cpu00.inst        790893473                       # Total read bandwidth from this memory (bytes/s)
system.mem_ctrls.bw_read::cpu00.data        471964072                       # Total read bandwidth from this memory (bytes/s)
system.mem_ctrls.bw_read::cpu01.inst         63014277                       # Total read bandwidth from this memory (bytes/s)
system.mem_ctrls.bw_read::cpu01.data         20576090                       # Total read bandwidth from this memory (bytes/s)
system.mem_ctrls.bw_read::cpu02.inst         63014277                       # Total read bandwidth from this memory (bytes/s)
system.mem_ctrls.bw_read::cpu02.data         20576090                       # Total read bandwidth from this memory (bytes/s)
system.mem_ctrls.bw_read::cpu03.inst         63014277                       # Total read bandwidth from this memory (bytes/s)
system.mem_ctrls.bw_read::cpu03.data         20576090                       # Total read bandwidth from this memory (bytes/s)
system.mem_ctrls.bw_read::cpu04.inst         64300282                       # Total read bandwidth from this memory (bytes/s)
system.mem_ctrls.bw_read::cpu04.data         20576090                       # Total read bandwidth from this memory (bytes/s)
system.mem_ctrls.bw_read::cpu05.inst         63014277                       # Total read bandwidth from this memory (bytes/s)
system.mem_ctrls.bw_read::cpu05.data         20576090                       # Total read bandwidth from this memory (bytes/s)
system.mem_ctrls.bw_read::cpu06.inst         63014277                       # Total read bandwidth from this memory (bytes/s)
system.mem_ctrls.bw_read::cpu06.data         21862096                       # Total read bandwidth from this memory (bytes/s)
system.mem_ctrls.bw_read::cpu07.inst         64300282                       # Total read bandwidth from this memory (bytes/s)
system.mem_ctrls.bw_read::cpu07.data         21862096                       # Total read bandwidth from this memory (bytes/s)
system.mem_ctrls.bw_read::cpu08.inst         66872294                       # Total read bandwidth from this memory (bytes/s)
system.mem_ctrls.bw_read::cpu08.data         20576090                       # Total read bandwidth from this memory (bytes/s)
system.mem_ctrls.bw_read::cpu09.inst         65586288                       # Total read bandwidth from this memory (bytes/s)
system.mem_ctrls.bw_read::cpu09.data         20576090                       # Total read bandwidth from this memory (bytes/s)
system.mem_ctrls.bw_read::cpu10.inst         66872294                       # Total read bandwidth from this memory (bytes/s)
system.mem_ctrls.bw_read::cpu10.data         20576090                       # Total read bandwidth from this memory (bytes/s)
system.mem_ctrls.bw_read::cpu11.inst         63014277                       # Total read bandwidth from this memory (bytes/s)
system.mem_ctrls.bw_read::cpu11.data         19290085                       # Total read bandwidth from this memory (bytes/s)
system.mem_ctrls.bw_read::cpu12.inst         68158299                       # Total read bandwidth from this memory (bytes/s)
system.mem_ctrls.bw_read::cpu12.data         20576090                       # Total read bandwidth from this memory (bytes/s)
system.mem_ctrls.bw_read::cpu13.inst         68158299                       # Total read bandwidth from this memory (bytes/s)
system.mem_ctrls.bw_read::cpu13.data         19290085                       # Total read bandwidth from this memory (bytes/s)
system.mem_ctrls.bw_read::cpu14.inst         68158299                       # Total read bandwidth from this memory (bytes/s)
system.mem_ctrls.bw_read::cpu14.data         20576090                       # Total read bandwidth from this memory (bytes/s)
system.mem_ctrls.bw_read::cpu15.inst         64300282                       # Total read bandwidth from this memory (bytes/s)
system.mem_ctrls.bw_read::cpu15.data         19290085                       # Total read bandwidth from this memory (bytes/s)
system.mem_ctrls.bw_read::total            2545005174                       # Total read bandwidth from this memory (bytes/s)
system.mem_ctrls.bw_inst_read::cpu00.inst    790893473                       # Instruction read bandwidth from this memory (bytes/s)
system.mem_ctrls.bw_inst_read::cpu01.inst     63014277                       # Instruction read bandwidth from this memory (bytes/s)
system.mem_ctrls.bw_inst_read::cpu02.inst     63014277                       # Instruction read bandwidth from this memory (bytes/s)
system.mem_ctrls.bw_inst_read::cpu03.inst     63014277                       # Instruction read bandwidth from this memory (bytes/s)
system.mem_ctrls.bw_inst_read::cpu04.inst     64300282                       # Instruction read bandwidth from this memory (bytes/s)
system.mem_ctrls.bw_inst_read::cpu05.inst     63014277                       # Instruction read bandwidth from this memory (bytes/s)
system.mem_ctrls.bw_inst_read::cpu06.inst     63014277                       # Instruction read bandwidth from this memory (bytes/s)
system.mem_ctrls.bw_inst_read::cpu07.inst     64300282                       # Instruction read bandwidth from this memory (bytes/s)
system.mem_ctrls.bw_inst_read::cpu08.inst     66872294                       # Instruction read bandwidth from this memory (bytes/s)
system.mem_ctrls.bw_inst_read::cpu09.inst     65586288                       # Instruction read bandwidth from this memory (bytes/s)
system.mem_ctrls.bw_inst_read::cpu10.inst     66872294                       # Instruction read bandwidth from this memory (bytes/s)
system.mem_ctrls.bw_inst_read::cpu11.inst     63014277                       # Instruction read bandwidth from this memory (bytes/s)
system.mem_ctrls.bw_inst_read::cpu12.inst     68158299                       # Instruction read bandwidth from this memory (bytes/s)
system.mem_ctrls.bw_inst_read::cpu13.inst     68158299                       # Instruction read bandwidth from this memory (bytes/s)
system.mem_ctrls.bw_inst_read::cpu14.inst     68158299                       # Instruction read bandwidth from this memory (bytes/s)
system.mem_ctrls.bw_inst_read::cpu15.inst     64300282                       # Instruction read bandwidth from this memory (bytes/s)
system.mem_ctrls.bw_inst_read::total       1765685752                       # Instruction read bandwidth from this memory (bytes/s)
system.mem_ctrls.bw_write::writebacks        24434107                       # Write bandwidth from this memory (bytes/s)
system.mem_ctrls.bw_write::total             24434107                       # Write bandwidth from this memory (bytes/s)
system.mem_ctrls.bw_total::writebacks        24434107                       # Total bandwidth to/from this memory (bytes/s)
system.mem_ctrls.bw_total::cpu00.inst       790893473                       # Total bandwidth to/from this memory (bytes/s)
system.mem_ctrls.bw_total::cpu00.data       471964072                       # Total bandwidth to/from this memory (bytes/s)
system.mem_ctrls.bw_total::cpu01.inst        63014277                       # Total bandwidth to/from this memory (bytes/s)
system.mem_ctrls.bw_total::cpu01.data        20576090                       # Total bandwidth to/from this memory (bytes/s)
system.mem_ctrls.bw_total::cpu02.inst        63014277                       # Total bandwidth to/from this memory (bytes/s)
system.mem_ctrls.bw_total::cpu02.data        20576090                       # Total bandwidth to/from this memory (bytes/s)
system.mem_ctrls.bw_total::cpu03.inst        63014277                       # Total bandwidth to/from this memory (bytes/s)
system.mem_ctrls.bw_total::cpu03.data        20576090                       # Total bandwidth to/from this memory (bytes/s)
system.mem_ctrls.bw_total::cpu04.inst        64300282                       # Total bandwidth to/from this memory (bytes/s)
system.mem_ctrls.bw_total::cpu04.data        20576090                       # Total bandwidth to/from this memory (bytes/s)
system.mem_ctrls.bw_total::cpu05.inst        63014277                       # Total bandwidth to/from this memory (bytes/s)
system.mem_ctrls.bw_total::cpu05.data        20576090                       # Total bandwidth to/from this memory (bytes/s)
system.mem_ctrls.bw_total::cpu06.inst        63014277                       # Total bandwidth to/from this memory (bytes/s)
system.mem_ctrls.bw_total::cpu06.data        21862096                       # Total bandwidth to/from this memory (bytes/s)
system.mem_ctrls.bw_total::cpu07.inst        64300282                       # Total bandwidth to/from this memory (bytes/s)
system.mem_ctrls.bw_total::cpu07.data        21862096                       # Total bandwidth to/from this memory (bytes/s)
system.mem_ctrls.bw_total::cpu08.inst        66872294                       # Total bandwidth to/from this memory (bytes/s)
system.mem_ctrls.bw_total::cpu08.data        20576090                       # Total bandwidth to/from this memory (bytes/s)
system.mem_ctrls.bw_total::cpu09.inst        65586288                       # Total bandwidth to/from this memory (bytes/s)
system.mem_ctrls.bw_total::cpu09.data        20576090                       # Total bandwidth to/from this memory (bytes/s)
system.mem_ctrls.bw_total::cpu10.inst        66872294                       # Total bandwidth to/from this memory (bytes/s)
system.mem_ctrls.bw_total::cpu10.data        20576090                       # Total bandwidth to/from this memory (bytes/s)
system.mem_ctrls.bw_total::cpu11.inst        63014277                       # Total bandwidth to/from this memory (bytes/s)
system.mem_ctrls.bw_total::cpu11.data        19290085                       # Total bandwidth to/from this memory (bytes/s)
system.mem_ctrls.bw_total::cpu12.inst        68158299                       # Total bandwidth to/from this memory (bytes/s)
system.mem_ctrls.bw_total::cpu12.data        20576090                       # Total bandwidth to/from this memory (bytes/s)
system.mem_ctrls.bw_total::cpu13.inst        68158299                       # Total bandwidth to/from this memory (bytes/s)
system.mem_ctrls.bw_total::cpu13.data        19290085                       # Total bandwidth to/from this memory (bytes/s)
system.mem_ctrls.bw_total::cpu14.inst        68158299                       # Total bandwidth to/from this memory (bytes/s)
system.mem_ctrls.bw_total::cpu14.data        20576090                       # Total bandwidth to/from this memory (bytes/s)
system.mem_ctrls.bw_total::cpu15.inst        64300282                       # Total bandwidth to/from this memory (bytes/s)
system.mem_ctrls.bw_total::cpu15.data        19290085                       # Total bandwidth to/from this memory (bytes/s)
system.mem_ctrls.bw_total::total           2569439281                       # Total bandwidth to/from this memory (bytes/s)
system.mem_ctrls.readReqs                        1980                       # Number of read requests accepted
system.mem_ctrls.writeReqs                         19                       # Number of write requests accepted
system.mem_ctrls.readBursts                      1980                       # Number of DRAM read bursts, including those serviced by the write queue
system.mem_ctrls.writeBursts                       19                       # Number of DRAM write bursts, including those merged in the write queue
system.mem_ctrls.bytesReadDRAM                 125120                       # Total number of bytes read from DRAM
system.mem_ctrls.bytesReadWrQ                    1600                       # Total number of bytes read from write queue
system.mem_ctrls.bytesWritten                       0                       # Total number of bytes written to DRAM
system.mem_ctrls.bytesReadSys                  126720                       # Total read bytes from the system interface side
system.mem_ctrls.bytesWrittenSys                 1216                       # Total written bytes from the system interface side
system.mem_ctrls.servicedByWrQ                     25                       # Number of DRAM read bursts serviced by the write queue
system.mem_ctrls.mergedWrBursts                     1                       # Number of DRAM write bursts merged with an existing one
system.mem_ctrls.neitherReadNorWriteReqs            9                       # Number of requests that are neither read nor write
system.mem_ctrls.perBankRdBursts::0               265                       # Per bank write bursts
system.mem_ctrls.perBankRdBursts::1               600                       # Per bank write bursts
system.mem_ctrls.perBankRdBursts::2               291                       # Per bank write bursts
system.mem_ctrls.perBankRdBursts::3               245                       # Per bank write bursts
system.mem_ctrls.perBankRdBursts::4                82                       # Per bank write bursts
system.mem_ctrls.perBankRdBursts::5                88                       # Per bank write bursts
system.mem_ctrls.perBankRdBursts::6               141                       # Per bank write bursts
system.mem_ctrls.perBankRdBursts::7                31                       # Per bank write bursts
system.mem_ctrls.perBankRdBursts::8                16                       # Per bank write bursts
system.mem_ctrls.perBankRdBursts::9                 8                       # Per bank write bursts
system.mem_ctrls.perBankRdBursts::10                0                       # Per bank write bursts
system.mem_ctrls.perBankRdBursts::11               15                       # Per bank write bursts
system.mem_ctrls.perBankRdBursts::12                8                       # Per bank write bursts
system.mem_ctrls.perBankRdBursts::13               40                       # Per bank write bursts
system.mem_ctrls.perBankRdBursts::14               39                       # Per bank write bursts
system.mem_ctrls.perBankRdBursts::15               86                       # Per bank write bursts
system.mem_ctrls.perBankWrBursts::0                 0                       # Per bank write bursts
system.mem_ctrls.perBankWrBursts::1                 0                       # Per bank write bursts
system.mem_ctrls.perBankWrBursts::2                 0                       # Per bank write bursts
system.mem_ctrls.perBankWrBursts::3                 0                       # Per bank write bursts
system.mem_ctrls.perBankWrBursts::4                 0                       # Per bank write bursts
system.mem_ctrls.perBankWrBursts::5                 0                       # Per bank write bursts
system.mem_ctrls.perBankWrBursts::6                 0                       # Per bank write bursts
system.mem_ctrls.perBankWrBursts::7                 0                       # Per bank write bursts
system.mem_ctrls.perBankWrBursts::8                 0                       # Per bank write bursts
system.mem_ctrls.perBankWrBursts::9                 0                       # Per bank write bursts
system.mem_ctrls.perBankWrBursts::10                0                       # Per bank write bursts
system.mem_ctrls.perBankWrBursts::11                0                       # Per bank write bursts
system.mem_ctrls.perBankWrBursts::12                0                       # Per bank write bursts
system.mem_ctrls.perBankWrBursts::13                0                       # Per bank write bursts
system.mem_ctrls.perBankWrBursts::14                0                       # Per bank write bursts
system.mem_ctrls.perBankWrBursts::15                0                       # Per bank write bursts
system.mem_ctrls.numRdRetry                        31                       # Number of times read queue was full causing retry
system.mem_ctrls.numWrRetry                         0                       # Number of times write queue was full causing retry
system.mem_ctrls.totGap                      49764000                       # Total gap between requests
system.mem_ctrls.readPktSize::0                     0                       # Read request sizes (log2)
system.mem_ctrls.readPktSize::1                     0                       # Read request sizes (log2)
system.mem_ctrls.readPktSize::2                     0                       # Read request sizes (log2)
system.mem_ctrls.readPktSize::3                     0                       # Read request sizes (log2)
system.mem_ctrls.readPktSize::4                     0                       # Read request sizes (log2)
system.mem_ctrls.readPktSize::5                     0                       # Read request sizes (log2)
system.mem_ctrls.readPktSize::6                  1980                       # Read request sizes (log2)
system.mem_ctrls.writePktSize::0                    0                       # Write request sizes (log2)
system.mem_ctrls.writePktSize::1                    0                       # Write request sizes (log2)
system.mem_ctrls.writePktSize::2                    0                       # Write request sizes (log2)
system.mem_ctrls.writePktSize::3                    0                       # Write request sizes (log2)
system.mem_ctrls.writePktSize::4                    0                       # Write request sizes (log2)
system.mem_ctrls.writePktSize::5                    0                       # Write request sizes (log2)
system.mem_ctrls.writePktSize::6                   19                       # Write request sizes (log2)
system.mem_ctrls.rdQLenPdf::0                     576                       # What read queue length does an incoming req see
system.mem_ctrls.rdQLenPdf::1                     264                       # What read queue length does an incoming req see
system.mem_ctrls.rdQLenPdf::2                     113                       # What read queue length does an incoming req see
system.mem_ctrls.rdQLenPdf::3                      66                       # What read queue length does an incoming req see
system.mem_ctrls.rdQLenPdf::4                      74                       # What read queue length does an incoming req see
system.mem_ctrls.rdQLenPdf::5                      67                       # What read queue length does an incoming req see
system.mem_ctrls.rdQLenPdf::6                      86                       # What read queue length does an incoming req see
system.mem_ctrls.rdQLenPdf::7                      84                       # What read queue length does an incoming req see
system.mem_ctrls.rdQLenPdf::8                      71                       # What read queue length does an incoming req see
system.mem_ctrls.rdQLenPdf::9                      63                       # What read queue length does an incoming req see
system.mem_ctrls.rdQLenPdf::10                     64                       # What read queue length does an incoming req see
system.mem_ctrls.rdQLenPdf::11                     49                       # What read queue length does an incoming req see
system.mem_ctrls.rdQLenPdf::12                     45                       # What read queue length does an incoming req see
system.mem_ctrls.rdQLenPdf::13                     29                       # What read queue length does an incoming req see
system.mem_ctrls.rdQLenPdf::14                     33                       # What read queue length does an incoming req see
system.mem_ctrls.rdQLenPdf::15                     26                       # What read queue length does an incoming req see
system.mem_ctrls.rdQLenPdf::16                     21                       # What read queue length does an incoming req see
system.mem_ctrls.rdQLenPdf::17                     15                       # What read queue length does an incoming req see
system.mem_ctrls.rdQLenPdf::18                     12                       # What read queue length does an incoming req see
system.mem_ctrls.rdQLenPdf::19                     14                       # What read queue length does an incoming req see
system.mem_ctrls.rdQLenPdf::20                     15                       # What read queue length does an incoming req see
system.mem_ctrls.rdQLenPdf::21                      9                       # What read queue length does an incoming req see
system.mem_ctrls.rdQLenPdf::22                     14                       # What read queue length does an incoming req see
system.mem_ctrls.rdQLenPdf::23                     20                       # What read queue length does an incoming req see
system.mem_ctrls.rdQLenPdf::24                     15                       # What read queue length does an incoming req see
system.mem_ctrls.rdQLenPdf::25                     19                       # What read queue length does an incoming req see
system.mem_ctrls.rdQLenPdf::26                     27                       # What read queue length does an incoming req see
system.mem_ctrls.rdQLenPdf::27                     18                       # What read queue length does an incoming req see
system.mem_ctrls.rdQLenPdf::28                      8                       # What read queue length does an incoming req see
system.mem_ctrls.rdQLenPdf::29                      2                       # What read queue length does an incoming req see
system.mem_ctrls.rdQLenPdf::30                      1                       # What read queue length does an incoming req see
system.mem_ctrls.rdQLenPdf::31                     35                       # What read queue length does an incoming req see
system.mem_ctrls.wrQLenPdf::0                       1                       # What write queue length does an incoming req see
system.mem_ctrls.wrQLenPdf::1                       1                       # What write queue length does an incoming req see
system.mem_ctrls.wrQLenPdf::2                       1                       # What write queue length does an incoming req see
system.mem_ctrls.wrQLenPdf::3                       1                       # What write queue length does an incoming req see
system.mem_ctrls.wrQLenPdf::4                       1                       # What write queue length does an incoming req see
system.mem_ctrls.wrQLenPdf::5                       1                       # What write queue length does an incoming req see
system.mem_ctrls.wrQLenPdf::6                       1                       # What write queue length does an incoming req see
system.mem_ctrls.wrQLenPdf::7                       1                       # What write queue length does an incoming req see
system.mem_ctrls.wrQLenPdf::8                       1                       # What write queue length does an incoming req see
system.mem_ctrls.wrQLenPdf::9                       1                       # What write queue length does an incoming req see
system.mem_ctrls.wrQLenPdf::10                      1                       # What write queue length does an incoming req see
system.mem_ctrls.wrQLenPdf::11                      1                       # What write queue length does an incoming req see
system.mem_ctrls.wrQLenPdf::12                      1                       # What write queue length does an incoming req see
system.mem_ctrls.wrQLenPdf::13                      1                       # What write queue length does an incoming req see
system.mem_ctrls.wrQLenPdf::14                      1                       # What write queue length does an incoming req see
system.mem_ctrls.wrQLenPdf::15                      1                       # What write queue length does an incoming req see
system.mem_ctrls.wrQLenPdf::16                      1                       # What write queue length does an incoming req see
system.mem_ctrls.wrQLenPdf::17                      1                       # What write queue length does an incoming req see
system.mem_ctrls.wrQLenPdf::18                      0                       # What write queue length does an incoming req see
system.mem_ctrls.wrQLenPdf::19                      0                       # What write queue length does an incoming req see
system.mem_ctrls.wrQLenPdf::20                      0                       # What write queue length does an incoming req see
system.mem_ctrls.wrQLenPdf::21                      0                       # What write queue length does an incoming req see
system.mem_ctrls.wrQLenPdf::22                      0                       # What write queue length does an incoming req see
system.mem_ctrls.wrQLenPdf::23                      0                       # What write queue length does an incoming req see
system.mem_ctrls.wrQLenPdf::24                      0                       # What write queue length does an incoming req see
system.mem_ctrls.wrQLenPdf::25                      0                       # What write queue length does an incoming req see
system.mem_ctrls.wrQLenPdf::26                      0                       # What write queue length does an incoming req see
system.mem_ctrls.wrQLenPdf::27                      0                       # What write queue length does an incoming req see
system.mem_ctrls.wrQLenPdf::28                      0                       # What write queue length does an incoming req see
system.mem_ctrls.wrQLenPdf::29                      0                       # What write queue length does an incoming req see
system.mem_ctrls.wrQLenPdf::30                      0                       # What write queue length does an incoming req see
system.mem_ctrls.wrQLenPdf::31                      0                       # What write queue length does an incoming req see
system.mem_ctrls.wrQLenPdf::32                      0                       # What write queue length does an incoming req see
system.mem_ctrls.wrQLenPdf::33                      0                       # What write queue length does an incoming req see
system.mem_ctrls.wrQLenPdf::34                      0                       # What write queue length does an incoming req see
system.mem_ctrls.wrQLenPdf::35                      0                       # What write queue length does an incoming req see
system.mem_ctrls.wrQLenPdf::36                      0                       # What write queue length does an incoming req see
system.mem_ctrls.wrQLenPdf::37                      0                       # What write queue length does an incoming req see
system.mem_ctrls.wrQLenPdf::38                      0                       # What write queue length does an incoming req see
system.mem_ctrls.wrQLenPdf::39                      0                       # What write queue length does an incoming req see
system.mem_ctrls.wrQLenPdf::40                      0                       # What write queue length does an incoming req see
system.mem_ctrls.wrQLenPdf::41                      0                       # What write queue length does an incoming req see
system.mem_ctrls.wrQLenPdf::42                      0                       # What write queue length does an incoming req see
system.mem_ctrls.wrQLenPdf::43                      0                       # What write queue length does an incoming req see
system.mem_ctrls.wrQLenPdf::44                      0                       # What write queue length does an incoming req see
system.mem_ctrls.wrQLenPdf::45                      0                       # What write queue length does an incoming req see
system.mem_ctrls.wrQLenPdf::46                      0                       # What write queue length does an incoming req see
system.mem_ctrls.wrQLenPdf::47                      0                       # What write queue length does an incoming req see
system.mem_ctrls.wrQLenPdf::48                      0                       # What write queue length does an incoming req see
system.mem_ctrls.wrQLenPdf::49                      0                       # What write queue length does an incoming req see
system.mem_ctrls.wrQLenPdf::50                      0                       # What write queue length does an incoming req see
system.mem_ctrls.wrQLenPdf::51                      0                       # What write queue length does an incoming req see
system.mem_ctrls.wrQLenPdf::52                      0                       # What write queue length does an incoming req see
system.mem_ctrls.wrQLenPdf::53                      0                       # What write queue length does an incoming req see
system.mem_ctrls.wrQLenPdf::54                      0                       # What write queue length does an incoming req see
system.mem_ctrls.wrQLenPdf::55                      0                       # What write queue length does an incoming req see
system.mem_ctrls.wrQLenPdf::56                      0                       # What write queue length does an incoming req see
system.mem_ctrls.wrQLenPdf::57                      0                       # What write queue length does an incoming req see
system.mem_ctrls.wrQLenPdf::58                      0                       # What write queue length does an incoming req see
system.mem_ctrls.wrQLenPdf::59                      0                       # What write queue length does an incoming req see
system.mem_ctrls.wrQLenPdf::60                      0                       # What write queue length does an incoming req see
system.mem_ctrls.wrQLenPdf::61                      0                       # What write queue length does an incoming req see
system.mem_ctrls.wrQLenPdf::62                      0                       # What write queue length does an incoming req see
system.mem_ctrls.wrQLenPdf::63                      0                       # What write queue length does an incoming req see
system.mem_ctrls.bytesPerActivate::samples          410                       # Bytes accessed per row activation
system.mem_ctrls.bytesPerActivate::mean    299.551220                       # Bytes accessed per row activation
system.mem_ctrls.bytesPerActivate::gmean   160.871488                       # Bytes accessed per row activation
system.mem_ctrls.bytesPerActivate::stdev   353.063787                       # Bytes accessed per row activation
system.mem_ctrls.bytesPerActivate::0-127          196     47.80%     47.80% # Bytes accessed per row activation
system.mem_ctrls.bytesPerActivate::128-255           78     19.02%     66.83% # Bytes accessed per row activation
system.mem_ctrls.bytesPerActivate::256-383           28      6.83%     73.66% # Bytes accessed per row activation
system.mem_ctrls.bytesPerActivate::384-511           20      4.88%     78.54% # Bytes accessed per row activation
system.mem_ctrls.bytesPerActivate::512-639            8      1.95%     80.49% # Bytes accessed per row activation
system.mem_ctrls.bytesPerActivate::640-767            6      1.46%     81.95% # Bytes accessed per row activation
system.mem_ctrls.bytesPerActivate::768-895            5      1.22%     83.17% # Bytes accessed per row activation
system.mem_ctrls.bytesPerActivate::896-1023            7      1.71%     84.88% # Bytes accessed per row activation
system.mem_ctrls.bytesPerActivate::1024-1151           62     15.12%    100.00% # Bytes accessed per row activation
system.mem_ctrls.bytesPerActivate::total          410                       # Bytes accessed per row activation
system.mem_ctrls.totQLat                     79634750                       # Total ticks spent queuing
system.mem_ctrls.totMemAccLat               116291000                       # Total ticks spent from burst creation until serviced by the DRAM
system.mem_ctrls.totBusLat                    9775000                       # Total ticks spent in databus transfers
system.mem_ctrls.avgQLat                     40733.89                       # Average queueing delay per DRAM burst
system.mem_ctrls.avgBusLat                    5000.00                       # Average bus latency per DRAM burst
system.mem_ctrls.avgMemAccLat                59483.89                       # Average memory access latency per DRAM burst
system.mem_ctrls.avgRdBW                      2514.14                       # Average DRAM read bandwidth in MiByte/s
system.mem_ctrls.avgWrBW                         0.00                       # Average achieved write bandwidth in MiByte/s
system.mem_ctrls.avgRdBWSys                   2546.29                       # Average system read bandwidth in MiByte/s
system.mem_ctrls.avgWrBWSys                     24.43                       # Average system write bandwidth in MiByte/s
system.mem_ctrls.peakBW                      12800.00                       # Theoretical peak bandwidth in MiByte/s
system.mem_ctrls.busUtil                        19.64                       # Data bus utilization in percentage
system.mem_ctrls.busUtilRead                    19.64                       # Data bus utilization in percentage for reads
system.mem_ctrls.busUtilWrite                    0.00                       # Data bus utilization in percentage for writes
system.mem_ctrls.avgRdQLen                       3.31                       # Average read queue length when enqueuing
system.mem_ctrls.avgWrQLen                       3.93                       # Average write queue length when enqueuing
system.mem_ctrls.readRowHits                     1535                       # Number of row buffer hits during reads
system.mem_ctrls.writeRowHits                       0                       # Number of row buffer hits during writes
system.mem_ctrls.readRowHitRate                 78.52                       # Row buffer hit rate for reads
system.mem_ctrls.writeRowHitRate                 0.00                       # Row buffer hit rate for writes
system.mem_ctrls.avgGap                      24894.45                       # Average gap between requests
system.mem_ctrls.pageHitRate                    77.80                       # Row buffer hit rate, read and write combined
system.mem_ctrls_0.actEnergy                  2766960                       # Energy for activate commands per rank (pJ)
system.mem_ctrls_0.preEnergy                  1509750                       # Energy for precharge commands per rank (pJ)
system.mem_ctrls_0.readEnergy                13252200                       # Energy for read commands per rank (pJ)
system.mem_ctrls_0.writeEnergy                      0                       # Energy for write commands per rank (pJ)
system.mem_ctrls_0.refreshEnergy              3051360                       # Energy for refresh commands per rank (pJ)
system.mem_ctrls_0.actBackEnergy             32031720                       # Energy for active background per rank (pJ)
system.mem_ctrls_0.preBackEnergy                91500                       # Energy for precharge background per rank (pJ)
system.mem_ctrls_0.totalEnergy               52703490                       # Total energy per rank (pJ)
system.mem_ctrls_0.averagePower           1121.768531                       # Core power per rank (mW)
system.mem_ctrls_0.memoryStateTime::IDLE          500                       # Time in different power states
system.mem_ctrls_0.memoryStateTime::REF       1560000                       # Time in different power states
system.mem_ctrls_0.memoryStateTime::PRE_PDN            0                       # Time in different power states
system.mem_ctrls_0.memoryStateTime::ACT      45434750                       # Time in different power states
system.mem_ctrls_0.memoryStateTime::ACT_PDN            0                       # Time in different power states
system.mem_ctrls_1.actEnergy                   249480                       # Energy for activate commands per rank (pJ)
system.mem_ctrls_1.preEnergy                   136125                       # Energy for precharge commands per rank (pJ)
system.mem_ctrls_1.readEnergy                 1357200                       # Energy for read commands per rank (pJ)
system.mem_ctrls_1.writeEnergy                      0                       # Energy for write commands per rank (pJ)
system.mem_ctrls_1.refreshEnergy              3051360                       # Energy for refresh commands per rank (pJ)
system.mem_ctrls_1.actBackEnergy             26519535                       # Energy for active background per rank (pJ)
system.mem_ctrls_1.preBackEnergy              4923750                       # Energy for precharge background per rank (pJ)
system.mem_ctrls_1.totalEnergy               36237450                       # Total energy per rank (pJ)
system.mem_ctrls_1.averagePower            771.378852                       # Core power per rank (mW)
system.mem_ctrls_1.memoryStateTime::IDLE      8025000                       # Time in different power states
system.mem_ctrls_1.memoryStateTime::REF       1560000                       # Time in different power states
system.mem_ctrls_1.memoryStateTime::PRE_PDN            0                       # Time in different power states
system.mem_ctrls_1.memoryStateTime::ACT      37406250                       # Time in different power states
system.mem_ctrls_1.memoryStateTime::ACT_PDN            0                       # Time in different power states
system.cpu00.branchPred.lookups                  7834                       # Number of BP lookups
system.cpu00.branchPred.condPredicted            5513                       # Number of conditional branches predicted
system.cpu00.branchPred.condIncorrect            1222                       # Number of conditional branches incorrect
system.cpu00.branchPred.BTBLookups               2469                       # Number of BTB lookups
system.cpu00.branchPred.BTBHits                  1716                       # Number of BTB hits
system.cpu00.branchPred.BTBCorrect                  0                       # Number of correct BTB predictions (this stat may not work properly.
system.cpu00.branchPred.BTBHitPct           69.501823                       # BTB Hit Percentage
system.cpu00.branchPred.usedRAS                   830                       # Number of times the RAS was used to get a target.
system.cpu00.branchPred.RASInCorrect                7                       # Number of incorrect RAS predictions.
system.cpu_voltage_domain.voltage                   1                       # Voltage in Volts
system.cpu_clk_domain.clock                       500                       # Clock period in ticks
system.cpu00.dstage2_mmu.stage2_tlb.walker.walks            0                       # Table walker walks requested
system.cpu00.dstage2_mmu.stage2_tlb.walker.walkRequestOrigin_Requested::Data            0                       # Table walker requests started/completed, data/inst
system.cpu00.dstage2_mmu.stage2_tlb.walker.walkRequestOrigin_Requested::Inst            0                       # Table walker requests started/completed, data/inst
system.cpu00.dstage2_mmu.stage2_tlb.walker.walkRequestOrigin_Requested::total            0                       # Table walker requests started/completed, data/inst
system.cpu00.dstage2_mmu.stage2_tlb.walker.walkRequestOrigin_Completed::Data            0                       # Table walker requests started/completed, data/inst
system.cpu00.dstage2_mmu.stage2_tlb.walker.walkRequestOrigin_Completed::Inst            0                       # Table walker requests started/completed, data/inst
system.cpu00.dstage2_mmu.stage2_tlb.walker.walkRequestOrigin_Completed::total            0                       # Table walker requests started/completed, data/inst
system.cpu00.dstage2_mmu.stage2_tlb.walker.walkRequestOrigin::total            0                       # Table walker requests started/completed, data/inst
system.cpu00.dstage2_mmu.stage2_tlb.inst_hits            0                       # ITB inst hits
system.cpu00.dstage2_mmu.stage2_tlb.inst_misses            0                       # ITB inst misses
system.cpu00.dstage2_mmu.stage2_tlb.read_hits            0                       # DTB read hits
system.cpu00.dstage2_mmu.stage2_tlb.read_misses            0                       # DTB read misses
system.cpu00.dstage2_mmu.stage2_tlb.write_hits            0                       # DTB write hits
system.cpu00.dstage2_mmu.stage2_tlb.write_misses            0                       # DTB write misses
system.cpu00.dstage2_mmu.stage2_tlb.flush_tlb            0                       # Number of times complete TLB was flushed
system.cpu00.dstage2_mmu.stage2_tlb.flush_tlb_mva            0                       # Number of times TLB was flushed by MVA
system.cpu00.dstage2_mmu.stage2_tlb.flush_tlb_mva_asid            0                       # Number of times TLB was flushed by MVA & ASID
system.cpu00.dstage2_mmu.stage2_tlb.flush_tlb_asid            0                       # Number of times TLB was flushed by ASID
system.cpu00.dstage2_mmu.stage2_tlb.flush_entries            0                       # Number of entries that have been flushed from TLB
system.cpu00.dstage2_mmu.stage2_tlb.align_faults            0                       # Number of TLB faults due to alignment restrictions
system.cpu00.dstage2_mmu.stage2_tlb.prefetch_faults            0                       # Number of TLB faults due to prefetch
system.cpu00.dstage2_mmu.stage2_tlb.domain_faults            0                       # Number of TLB faults due to domain restrictions
system.cpu00.dstage2_mmu.stage2_tlb.perms_faults            0                       # Number of TLB faults due to permissions restrictions
system.cpu00.dstage2_mmu.stage2_tlb.read_accesses            0                       # DTB read accesses
system.cpu00.dstage2_mmu.stage2_tlb.write_accesses            0                       # DTB write accesses
system.cpu00.dstage2_mmu.stage2_tlb.inst_accesses            0                       # ITB inst accesses
system.cpu00.dstage2_mmu.stage2_tlb.hits            0                       # DTB hits
system.cpu00.dstage2_mmu.stage2_tlb.misses            0                       # DTB misses
system.cpu00.dstage2_mmu.stage2_tlb.accesses            0                       # DTB accesses
system.cpu00.dtb.walker.walks                       0                       # Table walker walks requested
system.cpu00.dtb.walker.walkRequestOrigin_Requested::Data            0                       # Table walker requests started/completed, data/inst
system.cpu00.dtb.walker.walkRequestOrigin_Requested::Inst            0                       # Table walker requests started/completed, data/inst
system.cpu00.dtb.walker.walkRequestOrigin_Requested::total            0                       # Table walker requests started/completed, data/inst
system.cpu00.dtb.walker.walkRequestOrigin_Completed::Data            0                       # Table walker requests started/completed, data/inst
system.cpu00.dtb.walker.walkRequestOrigin_Completed::Inst            0                       # Table walker requests started/completed, data/inst
system.cpu00.dtb.walker.walkRequestOrigin_Completed::total            0                       # Table walker requests started/completed, data/inst
system.cpu00.dtb.walker.walkRequestOrigin::total            0                       # Table walker requests started/completed, data/inst
system.cpu00.dtb.inst_hits                          0                       # ITB inst hits
system.cpu00.dtb.inst_misses                        0                       # ITB inst misses
system.cpu00.dtb.read_hits                          0                       # DTB read hits
system.cpu00.dtb.read_misses                        0                       # DTB read misses
system.cpu00.dtb.write_hits                         0                       # DTB write hits
system.cpu00.dtb.write_misses                       0                       # DTB write misses
system.cpu00.dtb.flush_tlb                          0                       # Number of times complete TLB was flushed
system.cpu00.dtb.flush_tlb_mva                      0                       # Number of times TLB was flushed by MVA
system.cpu00.dtb.flush_tlb_mva_asid                 0                       # Number of times TLB was flushed by MVA & ASID
system.cpu00.dtb.flush_tlb_asid                     0                       # Number of times TLB was flushed by ASID
system.cpu00.dtb.flush_entries                      0                       # Number of entries that have been flushed from TLB
system.cpu00.dtb.align_faults                       0                       # Number of TLB faults due to alignment restrictions
system.cpu00.dtb.prefetch_faults                    0                       # Number of TLB faults due to prefetch
system.cpu00.dtb.domain_faults                      0                       # Number of TLB faults due to domain restrictions
system.cpu00.dtb.perms_faults                       0                       # Number of TLB faults due to permissions restrictions
system.cpu00.dtb.read_accesses                      0                       # DTB read accesses
system.cpu00.dtb.write_accesses                     0                       # DTB write accesses
system.cpu00.dtb.inst_accesses                      0                       # ITB inst accesses
system.cpu00.dtb.hits                               0                       # DTB hits
system.cpu00.dtb.misses                             0                       # DTB misses
system.cpu00.dtb.accesses                           0                       # DTB accesses
system.cpu00.istage2_mmu.stage2_tlb.walker.walks            0                       # Table walker walks requested
system.cpu00.istage2_mmu.stage2_tlb.walker.walkRequestOrigin_Requested::Data            0                       # Table walker requests started/completed, data/inst
system.cpu00.istage2_mmu.stage2_tlb.walker.walkRequestOrigin_Requested::Inst            0                       # Table walker requests started/completed, data/inst
system.cpu00.istage2_mmu.stage2_tlb.walker.walkRequestOrigin_Requested::total            0                       # Table walker requests started/completed, data/inst
system.cpu00.istage2_mmu.stage2_tlb.walker.walkRequestOrigin_Completed::Data            0                       # Table walker requests started/completed, data/inst
system.cpu00.istage2_mmu.stage2_tlb.walker.walkRequestOrigin_Completed::Inst            0                       # Table walker requests started/completed, data/inst
system.cpu00.istage2_mmu.stage2_tlb.walker.walkRequestOrigin_Completed::total            0                       # Table walker requests started/completed, data/inst
system.cpu00.istage2_mmu.stage2_tlb.walker.walkRequestOrigin::total            0                       # Table walker requests started/completed, data/inst
system.cpu00.istage2_mmu.stage2_tlb.inst_hits            0                       # ITB inst hits
system.cpu00.istage2_mmu.stage2_tlb.inst_misses            0                       # ITB inst misses
system.cpu00.istage2_mmu.stage2_tlb.read_hits            0                       # DTB read hits
system.cpu00.istage2_mmu.stage2_tlb.read_misses            0                       # DTB read misses
system.cpu00.istage2_mmu.stage2_tlb.write_hits            0                       # DTB write hits
system.cpu00.istage2_mmu.stage2_tlb.write_misses            0                       # DTB write misses
system.cpu00.istage2_mmu.stage2_tlb.flush_tlb            0                       # Number of times complete TLB was flushed
system.cpu00.istage2_mmu.stage2_tlb.flush_tlb_mva            0                       # Number of times TLB was flushed by MVA
system.cpu00.istage2_mmu.stage2_tlb.flush_tlb_mva_asid            0                       # Number of times TLB was flushed by MVA & ASID
system.cpu00.istage2_mmu.stage2_tlb.flush_tlb_asid            0                       # Number of times TLB was flushed by ASID
system.cpu00.istage2_mmu.stage2_tlb.flush_entries            0                       # Number of entries that have been flushed from TLB
system.cpu00.istage2_mmu.stage2_tlb.align_faults            0                       # Number of TLB faults due to alignment restrictions
system.cpu00.istage2_mmu.stage2_tlb.prefetch_faults            0                       # Number of TLB faults due to prefetch
system.cpu00.istage2_mmu.stage2_tlb.domain_faults            0                       # Number of TLB faults due to domain restrictions
system.cpu00.istage2_mmu.stage2_tlb.perms_faults            0                       # Number of TLB faults due to permissions restrictions
system.cpu00.istage2_mmu.stage2_tlb.read_accesses            0                       # DTB read accesses
system.cpu00.istage2_mmu.stage2_tlb.write_accesses            0                       # DTB write accesses
system.cpu00.istage2_mmu.stage2_tlb.inst_accesses            0                       # ITB inst accesses
system.cpu00.istage2_mmu.stage2_tlb.hits            0                       # DTB hits
system.cpu00.istage2_mmu.stage2_tlb.misses            0                       # DTB misses
system.cpu00.istage2_mmu.stage2_tlb.accesses            0                       # DTB accesses
system.cpu00.itb.walker.walks                       0                       # Table walker walks requested
system.cpu00.itb.walker.walkRequestOrigin_Requested::Data            0                       # Table walker requests started/completed, data/inst
system.cpu00.itb.walker.walkRequestOrigin_Requested::Inst            0                       # Table walker requests started/completed, data/inst
system.cpu00.itb.walker.walkRequestOrigin_Requested::total            0                       # Table walker requests started/completed, data/inst
system.cpu00.itb.walker.walkRequestOrigin_Completed::Data            0                       # Table walker requests started/completed, data/inst
system.cpu00.itb.walker.walkRequestOrigin_Completed::Inst            0                       # Table walker requests started/completed, data/inst
system.cpu00.itb.walker.walkRequestOrigin_Completed::total            0                       # Table walker requests started/completed, data/inst
system.cpu00.itb.walker.walkRequestOrigin::total            0                       # Table walker requests started/completed, data/inst
system.cpu00.itb.inst_hits                          0                       # ITB inst hits
system.cpu00.itb.inst_misses                        0                       # ITB inst misses
system.cpu00.itb.read_hits                          0                       # DTB read hits
system.cpu00.itb.read_misses                        0                       # DTB read misses
system.cpu00.itb.write_hits                         0                       # DTB write hits
system.cpu00.itb.write_misses                       0                       # DTB write misses
system.cpu00.itb.flush_tlb                          0                       # Number of times complete TLB was flushed
system.cpu00.itb.flush_tlb_mva                      0                       # Number of times TLB was flushed by MVA
system.cpu00.itb.flush_tlb_mva_asid                 0                       # Number of times TLB was flushed by MVA & ASID
system.cpu00.itb.flush_tlb_asid                     0                       # Number of times TLB was flushed by ASID
system.cpu00.itb.flush_entries                      0                       # Number of entries that have been flushed from TLB
system.cpu00.itb.align_faults                       0                       # Number of TLB faults due to alignment restrictions
system.cpu00.itb.prefetch_faults                    0                       # Number of TLB faults due to prefetch
system.cpu00.itb.domain_faults                      0                       # Number of TLB faults due to domain restrictions
system.cpu00.itb.perms_faults                       0                       # Number of TLB faults due to permissions restrictions
system.cpu00.itb.read_accesses                      0                       # DTB read accesses
system.cpu00.itb.write_accesses                     0                       # DTB write accesses
system.cpu00.itb.inst_accesses                      0                       # ITB inst accesses
system.cpu00.itb.hits                               0                       # DTB hits
system.cpu00.itb.misses                             0                       # DTB misses
system.cpu00.itb.accesses                           0                       # DTB accesses
system.cpu00.workload.num_syscalls                352                       # Number of system calls
system.cpu00.numCycles                          99534                       # number of cpu cycles simulated
system.cpu00.numWorkItemsStarted                    0                       # number of work items this cpu started
system.cpu00.numWorkItemsCompleted                  0                       # number of work items this cpu completed
system.cpu00.fetch.icacheStallCycles            15249                       # Number of cycles fetch is stalled on an Icache miss
system.cpu00.fetch.Insts                        41178                       # Number of instructions fetch has processed
system.cpu00.fetch.Branches                      7834                       # Number of branches that fetch encountered
system.cpu00.fetch.predictedBranches             2546                       # Number of branches that fetch has predicted taken
system.cpu00.fetch.Cycles                       41499                       # Number of cycles fetch has run and was not squashing or blocked
system.cpu00.fetch.SquashCycles                  2555                       # Number of cycles fetch has spent squashing
system.cpu00.fetch.MiscStallCycles                313                       # Number of cycles fetch has spent waiting on interrupts, or bad addresses, or out of MSHRs
system.cpu00.fetch.PendingTrapStallCycles          108                       # Number of stall cycles due to pending traps
system.cpu00.fetch.IcacheWaitRetryStallCycles          416                       # Number of stall cycles due to full MSHR
system.cpu00.fetch.CacheLines                   13185                       # Number of cache lines fetched
system.cpu00.fetch.IcacheSquashes                 361                       # Number of outstanding Icache misses that were squashed
system.cpu00.fetch.rateDist::samples            58862                       # Number of instructions fetched each cycle (Total)
system.cpu00.fetch.rateDist::mean            0.839761                       # Number of instructions fetched each cycle (Total)
system.cpu00.fetch.rateDist::stdev           1.204584                       # Number of instructions fetched each cycle (Total)
system.cpu00.fetch.rateDist::underflows             0      0.00%      0.00% # Number of instructions fetched each cycle (Total)
system.cpu00.fetch.rateDist::0                  36048     61.24%     61.24% # Number of instructions fetched each cycle (Total)
system.cpu00.fetch.rateDist::1                   8326     14.14%     75.39% # Number of instructions fetched each cycle (Total)
system.cpu00.fetch.rateDist::2                   2360      4.01%     79.40% # Number of instructions fetched each cycle (Total)
system.cpu00.fetch.rateDist::3                  12128     20.60%    100.00% # Number of instructions fetched each cycle (Total)
system.cpu00.fetch.rateDist::overflows              0      0.00%    100.00% # Number of instructions fetched each cycle (Total)
system.cpu00.fetch.rateDist::min_value              0                       # Number of instructions fetched each cycle (Total)
system.cpu00.fetch.rateDist::max_value              3                       # Number of instructions fetched each cycle (Total)
system.cpu00.fetch.rateDist::total              58862                       # Number of instructions fetched each cycle (Total)
system.cpu00.fetch.branchRate                0.078707                       # Number of branch fetches per cycle
system.cpu00.fetch.rate                      0.413708                       # Number of inst fetches per cycle
system.cpu00.decode.IdleCycles                  13527                       # Number of cycles decode is idle
system.cpu00.decode.BlockedCycles               25283                       # Number of cycles decode is blocked
system.cpu00.decode.RunCycles                   18326                       # Number of cycles decode is running
system.cpu00.decode.UnblockCycles                 770                       # Number of cycles decode is unblocking
system.cpu00.decode.SquashCycles                  956                       # Number of cycles decode is squashing
system.cpu00.decode.BranchResolved                919                       # Number of times decode resolved a branch
system.cpu00.decode.BranchMispred                 341                       # Number of times decode detected a branch misprediction
system.cpu00.decode.DecodedInsts                39451                       # Number of instructions handled by decode
system.cpu00.decode.SquashedInsts                4124                       # Number of squashed instructions handled by decode
system.cpu00.rename.SquashCycles                  956                       # Number of cycles rename is squashing
system.cpu00.rename.IdleCycles                  16676                       # Number of cycles rename is idle
system.cpu00.rename.BlockCycles                  2608                       # Number of cycles rename is blocking
system.cpu00.rename.serializeStallCycles         9989                       # count of cycles rename stalled for serializing inst
system.cpu00.rename.RunCycles                   15911                       # Number of cycles rename is running
system.cpu00.rename.UnblockCycles               12722                       # Number of cycles rename is unblocking
system.cpu00.rename.RenamedInsts                36215                       # Number of instructions processed by rename
system.cpu00.rename.SquashedInsts                1443                       # Number of squashed instructions processed by rename
system.cpu00.rename.ROBFullEvents                  84                       # Number of times rename has blocked due to ROB full
system.cpu00.rename.IQFullEvents                   11                       # Number of times rename has blocked due to IQ full
system.cpu00.rename.LQFullEvents                    1                       # Number of times rename has blocked due to LQ full
system.cpu00.rename.SQFullEvents                12211                       # Number of times rename has blocked due to SQ full
system.cpu00.rename.RenamedOperands             39743                       # Number of destination operands rename has renamed
system.cpu00.rename.RenameLookups              170477                       # Number of register rename lookups that rename has made
system.cpu00.rename.int_rename_lookups          44644                       # Number of integer rename lookups
system.cpu00.rename.fp_rename_lookups              22                       # Number of floating rename lookups
system.cpu00.rename.CommittedMaps               29157                       # Number of HB maps that are committed
system.cpu00.rename.UndoneMaps                  10586                       # Number of HB maps that are undone due to squashing
system.cpu00.rename.serializingInsts              129                       # count of serializing insts renamed
system.cpu00.rename.tempSerializingInsts          127                       # count of temporary serializing insts renamed
system.cpu00.rename.skidInsts                    2090                       # count of insts added to the skid buffer
system.cpu00.memDep0.insertedLoads               5646                       # Number of loads inserted to the mem dependence unit.
system.cpu00.memDep0.insertedStores              5993                       # Number of stores inserted to the mem dependence unit.
system.cpu00.memDep0.conflictingLoads             232                       # Number of conflicting loads.
system.cpu00.memDep0.conflictingStores            103                       # Number of conflicting stores.
system.cpu00.iq.iqInstsAdded                    34532                       # Number of instructions added to the IQ (excludes non-spec)
system.cpu00.iq.iqNonSpecInstsAdded               262                       # Number of non-speculative instructions added to the IQ
system.cpu00.iq.iqInstsIssued                   31588                       # Number of instructions issued
system.cpu00.iq.iqSquashedInstsIssued             411                       # Number of squashed instructions issued
system.cpu00.iq.iqSquashedInstsExamined          8231                       # Number of squashed instructions iterated over during squash; mainly for profiling
system.cpu00.iq.iqSquashedOperandsExamined        20417                       # Number of squashed operands that are examined and possibly removed from graph
system.cpu00.iq.iqSquashedNonSpecRemoved           48                       # Number of squashed non-spec instructions that were removed
system.cpu00.iq.issued_per_cycle::samples        58862                       # Number of insts issued each cycle
system.cpu00.iq.issued_per_cycle::mean       0.536645                       # Number of insts issued each cycle
system.cpu00.iq.issued_per_cycle::stdev      0.940279                       # Number of insts issued each cycle
system.cpu00.iq.issued_per_cycle::underflows            0      0.00%      0.00% # Number of insts issued each cycle
system.cpu00.iq.issued_per_cycle::0             41680     70.81%     70.81% # Number of insts issued each cycle
system.cpu00.iq.issued_per_cycle::1              6816     11.58%     82.39% # Number of insts issued each cycle
system.cpu00.iq.issued_per_cycle::2              6579     11.18%     93.57% # Number of insts issued each cycle
system.cpu00.iq.issued_per_cycle::3              3537      6.01%     99.58% # Number of insts issued each cycle
system.cpu00.iq.issued_per_cycle::4               247      0.42%     99.99% # Number of insts issued each cycle
system.cpu00.iq.issued_per_cycle::5                 3      0.01%    100.00% # Number of insts issued each cycle
system.cpu00.iq.issued_per_cycle::6                 0      0.00%    100.00% # Number of insts issued each cycle
system.cpu00.iq.issued_per_cycle::7                 0      0.00%    100.00% # Number of insts issued each cycle
system.cpu00.iq.issued_per_cycle::8                 0      0.00%    100.00% # Number of insts issued each cycle
system.cpu00.iq.issued_per_cycle::overflows            0      0.00%    100.00% # Number of insts issued each cycle
system.cpu00.iq.issued_per_cycle::min_value            0                       # Number of insts issued each cycle
system.cpu00.iq.issued_per_cycle::max_value            5                       # Number of insts issued each cycle
system.cpu00.iq.issued_per_cycle::total         58862                       # Number of insts issued each cycle
system.cpu00.iq.fu_full::No_OpClass                 0      0.00%      0.00% # attempts to use FU when none available
system.cpu00.iq.fu_full::IntAlu                  2365     35.50%     35.50% # attempts to use FU when none available
system.cpu00.iq.fu_full::IntMult                    9      0.14%     35.63% # attempts to use FU when none available
system.cpu00.iq.fu_full::IntDiv                     0      0.00%     35.63% # attempts to use FU when none available
system.cpu00.iq.fu_full::FloatAdd                   0      0.00%     35.63% # attempts to use FU when none available
system.cpu00.iq.fu_full::FloatCmp                   0      0.00%     35.63% # attempts to use FU when none available
system.cpu00.iq.fu_full::FloatCvt                   0      0.00%     35.63% # attempts to use FU when none available
system.cpu00.iq.fu_full::FloatMult                  0      0.00%     35.63% # attempts to use FU when none available
system.cpu00.iq.fu_full::FloatDiv                   0      0.00%     35.63% # attempts to use FU when none available
system.cpu00.iq.fu_full::FloatSqrt                  0      0.00%     35.63% # attempts to use FU when none available
system.cpu00.iq.fu_full::SimdAdd                    0      0.00%     35.63% # attempts to use FU when none available
system.cpu00.iq.fu_full::SimdAddAcc                 0      0.00%     35.63% # attempts to use FU when none available
system.cpu00.iq.fu_full::SimdAlu                    0      0.00%     35.63% # attempts to use FU when none available
system.cpu00.iq.fu_full::SimdCmp                    0      0.00%     35.63% # attempts to use FU when none available
system.cpu00.iq.fu_full::SimdCvt                    0      0.00%     35.63% # attempts to use FU when none available
system.cpu00.iq.fu_full::SimdMisc                   0      0.00%     35.63% # attempts to use FU when none available
system.cpu00.iq.fu_full::SimdMult                   0      0.00%     35.63% # attempts to use FU when none available
system.cpu00.iq.fu_full::SimdMultAcc                0      0.00%     35.63% # attempts to use FU when none available
system.cpu00.iq.fu_full::SimdShift                  0      0.00%     35.63% # attempts to use FU when none available
system.cpu00.iq.fu_full::SimdShiftAcc               0      0.00%     35.63% # attempts to use FU when none available
system.cpu00.iq.fu_full::SimdSqrt                   0      0.00%     35.63% # attempts to use FU when none available
system.cpu00.iq.fu_full::SimdFloatAdd               0      0.00%     35.63% # attempts to use FU when none available
system.cpu00.iq.fu_full::SimdFloatAlu               0      0.00%     35.63% # attempts to use FU when none available
system.cpu00.iq.fu_full::SimdFloatCmp               0      0.00%     35.63% # attempts to use FU when none available
system.cpu00.iq.fu_full::SimdFloatCvt               0      0.00%     35.63% # attempts to use FU when none available
system.cpu00.iq.fu_full::SimdFloatDiv               0      0.00%     35.63% # attempts to use FU when none available
system.cpu00.iq.fu_full::SimdFloatMisc              0      0.00%     35.63% # attempts to use FU when none available
system.cpu00.iq.fu_full::SimdFloatMult              0      0.00%     35.63% # attempts to use FU when none available
system.cpu00.iq.fu_full::SimdFloatMultAcc            0      0.00%     35.63% # attempts to use FU when none available
system.cpu00.iq.fu_full::SimdFloatSqrt              0      0.00%     35.63% # attempts to use FU when none available
system.cpu00.iq.fu_full::MemRead                 1480     22.22%     57.85% # attempts to use FU when none available
system.cpu00.iq.fu_full::MemWrite                2808     42.15%    100.00% # attempts to use FU when none available
system.cpu00.iq.fu_full::IprAccess                  0      0.00%    100.00% # attempts to use FU when none available
system.cpu00.iq.fu_full::InstPrefetch               0      0.00%    100.00% # attempts to use FU when none available
system.cpu00.iq.FU_type_0::No_OpClass               0      0.00%      0.00% # Type of FU issued
system.cpu00.iq.FU_type_0::IntAlu               20414     64.63%     64.63% # Type of FU issued
system.cpu00.iq.FU_type_0::IntMult                361      1.14%     65.77% # Type of FU issued
system.cpu00.iq.FU_type_0::IntDiv                   0      0.00%     65.77% # Type of FU issued
system.cpu00.iq.FU_type_0::FloatAdd                 0      0.00%     65.77% # Type of FU issued
system.cpu00.iq.FU_type_0::FloatCmp                 0      0.00%     65.77% # Type of FU issued
system.cpu00.iq.FU_type_0::FloatCvt                 0      0.00%     65.77% # Type of FU issued
system.cpu00.iq.FU_type_0::FloatMult                0      0.00%     65.77% # Type of FU issued
system.cpu00.iq.FU_type_0::FloatDiv                 0      0.00%     65.77% # Type of FU issued
[...]
system.membus.pkt_count_system.cpu07.icache.mem_side::system.mem_ctrls.port          100                       # Packet count per connected master and slave (bytes)
system.membus.pkt_count_system.cpu07.dcache.mem_side::system.mem_ctrls.port           73                       # Packet count per connected master and slave (bytes)
system.membus.pkt_count_system.cpu08.icache.mem_side::system.mem_ctrls.port          104                       # Packet count per connected master and slave (bytes)
system.membus.pkt_count_system.cpu08.dcache.mem_side::system.mem_ctrls.port           67                       # Packet count per connected master and slave (bytes)
system.membus.pkt_count_system.cpu09.icache.mem_side::system.mem_ctrls.port          102                       # Packet count per connected master and slave (bytes)
system.membus.pkt_count_system.cpu09.dcache.mem_side::system.mem_ctrls.port           66                       # Packet count per connected master and slave (bytes)
system.membus.pkt_count_system.cpu10.icache.mem_side::system.mem_ctrls.port          104                       # Packet count per connected master and slave (bytes)
system.membus.pkt_count_system.cpu10.dcache.mem_side::system.mem_ctrls.port           60                       # Packet count per connected master and slave (bytes)
system.membus.pkt_count_system.cpu11.icache.mem_side::system.mem_ctrls.port           98                       # Packet count per connected master and slave (bytes)
system.membus.pkt_count_system.cpu11.dcache.mem_side::system.mem_ctrls.port           61                       # Packet count per connected master and slave (bytes)
system.membus.pkt_count_system.cpu12.icache.mem_side::system.mem_ctrls.port          106                       # Packet count per connected master and slave (bytes)
system.membus.pkt_count_system.cpu12.dcache.mem_side::system.mem_ctrls.port           64                       # Packet count per connected master and slave (bytes)
system.membus.pkt_count_system.cpu13.icache.mem_side::system.mem_ctrls.port          106                       # Packet count per connected master and slave (bytes)
system.membus.pkt_count_system.cpu13.dcache.mem_side::system.mem_ctrls.port           64                       # Packet count per connected master and slave (bytes)
system.membus.pkt_count_system.cpu14.icache.mem_side::system.mem_ctrls.port          106                       # Packet count per connected master and slave (bytes)
system.membus.pkt_count_system.cpu14.dcache.mem_side::system.mem_ctrls.port           61                       # Packet count per connected master and slave (bytes)
system.membus.pkt_count_system.cpu15.icache.mem_side::system.mem_ctrls.port          100                       # Packet count per connected master and slave (bytes)
system.membus.pkt_count_system.cpu15.dcache.mem_side::system.mem_ctrls.port           64                       # Packet count per connected master and slave (bytes)
system.membus.pkt_count::total                   4568                       # Packet count per connected master and slave (bytes)
system.membus.pkt_size_system.cpu00.icache.mem_side::system.mem_ctrls.port        39360                       # Cumulative packet size per connected master and slave (bytes)
system.membus.pkt_size_system.cpu00.dcache.mem_side::system.mem_ctrls.port        24704                       # Cumulative packet size per connected master and slave (bytes)
system.membus.pkt_size_system.cpu01.icache.mem_side::system.mem_ctrls.port         3136                       # Cumulative packet size per connected master and slave (bytes)
system.membus.pkt_size_system.cpu01.dcache.mem_side::system.mem_ctrls.port         1024                       # Cumulative packet size per connected master and slave (bytes)
system.membus.pkt_size_system.cpu02.icache.mem_side::system.mem_ctrls.port         3136                       # Cumulative packet size per connected master and slave (bytes)
system.membus.pkt_size_system.cpu02.dcache.mem_side::system.mem_ctrls.port         1024                       # Cumulative packet size per connected master and slave (bytes)
system.membus.pkt_size_system.cpu03.icache.mem_side::system.mem_ctrls.port         3136                       # Cumulative packet size per connected master and slave (bytes)
system.membus.pkt_size_system.cpu03.dcache.mem_side::system.mem_ctrls.port         1024                       # Cumulative packet size per connected master and slave (bytes)
system.membus.pkt_size_system.cpu04.icache.mem_side::system.mem_ctrls.port         3200                       # Cumulative packet size per connected master and slave (bytes)
system.membus.pkt_size_system.cpu04.dcache.mem_side::system.mem_ctrls.port         1024                       # Cumulative packet size per connected master and slave (bytes)
system.membus.pkt_size_system.cpu05.icache.mem_side::system.mem_ctrls.port         3136                       # Cumulative packet size per connected master and slave (bytes)
system.membus.pkt_size_system.cpu05.dcache.mem_side::system.mem_ctrls.port         1024                       # Cumulative packet size per connected master and slave (bytes)
system.membus.pkt_size_system.cpu06.icache.mem_side::system.mem_ctrls.port         3136                       # Cumulative packet size per connected master and slave (bytes)
system.membus.pkt_size_system.cpu06.dcache.mem_side::system.mem_ctrls.port         1088                       # Cumulative packet size per connected master and slave (bytes)
system.membus.pkt_size_system.cpu07.icache.mem_side::system.mem_ctrls.port         3200                       # Cumulative packet size per connected master and slave (bytes)
system.membus.pkt_size_system.cpu07.dcache.mem_side::system.mem_ctrls.port         1088                       # Cumulative packet size per connected master and slave (bytes)
system.membus.pkt_size_system.cpu08.icache.mem_side::system.mem_ctrls.port         3328                       # Cumulative packet size per connected master and slave (bytes)
system.membus.pkt_size_system.cpu08.dcache.mem_side::system.mem_ctrls.port         1024                       # Cumulative packet size per connected master and slave (bytes)
system.membus.pkt_size_system.cpu09.icache.mem_side::system.mem_ctrls.port         3264                       # Cumulative packet size per connected master and slave (bytes)
system.membus.pkt_size_system.cpu09.dcache.mem_side::system.mem_ctrls.port         1024                       # Cumulative packet size per connected master and slave (bytes)
system.membus.pkt_size_system.cpu10.icache.mem_side::system.mem_ctrls.port         3328                       # Cumulative packet size per connected master and slave (bytes)
system.membus.pkt_size_system.cpu10.dcache.mem_side::system.mem_ctrls.port         1024                       # Cumulative packet size per connected master and slave (bytes)
system.membus.pkt_size_system.cpu11.icache.mem_side::system.mem_ctrls.port         3136                       # Cumulative packet size per connected master and slave (bytes)
system.membus.pkt_size_system.cpu11.dcache.mem_side::system.mem_ctrls.port          960                       # Cumulative packet size per connected master and slave (bytes)
system.membus.pkt_size_system.cpu12.icache.mem_side::system.mem_ctrls.port         3392                       # Cumulative packet size per connected master and slave (bytes)
system.membus.pkt_size_system.cpu12.dcache.mem_side::system.mem_ctrls.port         1024                       # Cumulative packet size per connected master and slave (bytes)
system.membus.pkt_size_system.cpu13.icache.mem_side::system.mem_ctrls.port         3392                       # Cumulative packet size per connected master and slave (bytes)
system.membus.pkt_size_system.cpu13.dcache.mem_side::system.mem_ctrls.port          960                       # Cumulative packet size per connected master and slave (bytes)
system.membus.pkt_size_system.cpu14.icache.mem_side::system.mem_ctrls.port         3392                       # Cumulative packet size per connected master and slave (bytes)
system.membus.pkt_size_system.cpu14.dcache.mem_side::system.mem_ctrls.port         1024                       # Cumulative packet size per connected master and slave (bytes)
system.membus.pkt_size_system.cpu15.icache.mem_side::system.mem_ctrls.port         3200                       # Cumulative packet size per connected master and slave (bytes)
system.membus.pkt_size_system.cpu15.dcache.mem_side::system.mem_ctrls.port          960                       # Cumulative packet size per connected master and slave (bytes)
system.membus.pkt_size::total                  127872                       # Cumulative packet size per connected master and slave (bytes)
system.membus.snoops                              572                       # Total snoops (count)
system.membus.snoop_fanout::samples              2611                       # Request fanout histogram
system.membus.snoop_fanout::mean                   31                       # Request fanout histogram
system.membus.snoop_fanout::stdev                   0                       # Request fanout histogram
system.membus.snoop_fanout::underflows              0      0.00%      0.00% # Request fanout histogram
system.membus.snoop_fanout::0                       0      0.00%      0.00% # Request fanout histogram
system.membus.snoop_fanout::1                       0      0.00%      0.00% # Request fanout histogram
system.membus.snoop_fanout::2                       0      0.00%      0.00% # Request fanout histogram
system.membus.snoop_fanout::3                       0      0.00%      0.00% # Request fanout histogram
system.membus.snoop_fanout::4                       0      0.00%      0.00% # Request fanout histogram
system.membus.snoop_fanout::5                       0      0.00%      0.00% # Request fanout histogram
system.membus.snoop_fanout::6                       0      0.00%      0.00% # Request fanout histogram
system.membus.snoop_fanout::7                       0      0.00%      0.00% # Request fanout histogram
system.membus.snoop_fanout::8                       0      0.00%      0.00% # Request fanout histogram
system.membus.snoop_fanout::9                       0      0.00%      0.00% # Request fanout histogram
system.membus.snoop_fanout::10                      0      0.00%      0.00% # Request fanout histogram
system.membus.snoop_fanout::11                      0      0.00%      0.00% # Request fanout histogram
system.membus.snoop_fanout::12                      0      0.00%      0.00% # Request fanout histogram
system.membus.snoop_fanout::13                      0      0.00%      0.00% # Request fanout histogram
system.membus.snoop_fanout::14                      0      0.00%      0.00% # Request fanout histogram
system.membus.snoop_fanout::15                      0      0.00%      0.00% # Request fanout histogram
system.membus.snoop_fanout::16                      0      0.00%      0.00% # Request fanout histogram
system.membus.snoop_fanout::17                      0      0.00%      0.00% # Request fanout histogram
system.membus.snoop_fanout::18                      0      0.00%      0.00% # Request fanout histogram
system.membus.snoop_fanout::19                      0      0.00%      0.00% # Request fanout histogram
system.membus.snoop_fanout::20                      0      0.00%      0.00% # Request fanout histogram
system.membus.snoop_fanout::21                      0      0.00%      0.00% # Request fanout histogram
system.membus.snoop_fanout::22                      0      0.00%      0.00% # Request fanout histogram
system.membus.snoop_fanout::23                      0      0.00%      0.00% # Request fanout histogram
system.membus.snoop_fanout::24                      0      0.00%      0.00% # Request fanout histogram
system.membus.snoop_fanout::25                      0      0.00%      0.00% # Request fanout histogram
system.membus.snoop_fanout::26                      0      0.00%      0.00% # Request fanout histogram
system.membus.snoop_fanout::27                      0      0.00%      0.00% # Request fanout histogram
system.membus.snoop_fanout::28                      0      0.00%      0.00% # Request fanout histogram
system.membus.snoop_fanout::29                      0      0.00%      0.00% # Request fanout histogram
system.membus.snoop_fanout::30                      0      0.00%      0.00% # Request fanout histogram
system.membus.snoop_fanout::31                   2611    100.00%    100.00% # Request fanout histogram
system.membus.snoop_fanout::32                      0      0.00%    100.00% # Request fanout histogram
system.membus.snoop_fanout::overflows               0      0.00%    100.00% # Request fanout histogram
system.membus.snoop_fanout::min_value              31                       # Request fanout histogram
system.membus.snoop_fanout::max_value              31                       # Request fanout histogram
system.membus.snoop_fanout::total                2611                       # Request fanout histogram
system.membus.reqLayer0.occupancy             3211500                       # Layer occupancy (ticks)
system.membus.reqLayer0.utilization               6.5                       # Layer utilization (%)
system.membus.respLayer1.occupancy            3271999                       # Layer occupancy (ticks)
system.membus.respLayer1.utilization              6.6                       # Layer utilization (%)
system.membus.respLayer2.occupancy            2020491                       # Layer occupancy (ticks)
system.membus.respLayer2.utilization              4.1                       # Layer utilization (%)
system.membus.respLayer5.occupancy             260250                       # Layer occupancy (ticks)
system.membus.respLayer5.utilization              0.5                       # Layer utilization (%)
system.membus.respLayer6.occupancy             283992                       # Layer occupancy (ticks)
system.membus.respLayer6.utilization              0.6                       # Layer utilization (%)
system.membus.respLayer9.occupancy             261250                       # Layer occupancy (ticks)
system.membus.respLayer9.utilization              0.5                       # Layer utilization (%)
system.membus.respLayer10.occupancy            354247                       # Layer occupancy (ticks)
system.membus.respLayer10.utilization             0.7                       # Layer utilization (%)
system.membus.respLayer13.occupancy            260500                       # Layer occupancy (ticks)
system.membus.respLayer13.utilization             0.5                       # Layer utilization (%)
system.membus.respLayer14.occupancy            263996                       # Layer occupancy (ticks)
system.membus.respLayer14.utilization             0.5                       # Layer utilization (%)
system.membus.respLayer17.occupancy            264750                       # Layer occupancy (ticks)
system.membus.respLayer17.utilization             0.5                       # Layer utilization (%)
system.membus.respLayer18.occupancy            300739                       # Layer occupancy (ticks)
system.membus.respLayer18.utilization             0.6                       # Layer utilization (%)
system.membus.respLayer21.occupancy            261000                       # Layer occupancy (ticks)
system.membus.respLayer21.utilization             0.5                       # Layer utilization (%)
system.membus.respLayer22.occupancy            285498                       # Layer occupancy (ticks)
system.membus.respLayer22.utilization             0.6                       # Layer utilization (%)
system.membus.respLayer25.occupancy            259750                       # Layer occupancy (ticks)
system.membus.respLayer25.utilization             0.5                       # Layer utilization (%)
system.membus.respLayer26.occupancy            275993                       # Layer occupancy (ticks)
system.membus.respLayer26.utilization             0.6                       # Layer utilization (%)
system.membus.respLayer29.occupancy            266000                       # Layer occupancy (ticks)
system.membus.respLayer29.utilization             0.5                       # Layer utilization (%)
system.membus.respLayer30.occupancy            271741                       # Layer occupancy (ticks)
system.membus.respLayer30.utilization             0.5                       # Layer utilization (%)
system.membus.respLayer33.occupancy            278000                       # Layer occupancy (ticks)
system.membus.respLayer33.utilization             0.6                       # Layer utilization (%)
system.membus.respLayer34.occupancy            247241                       # Layer occupancy (ticks)
system.membus.respLayer34.utilization             0.5                       # Layer utilization (%)
system.membus.respLayer37.occupancy            269000                       # Layer occupancy (ticks)
system.membus.respLayer37.utilization             0.5                       # Layer utilization (%)
system.membus.respLayer38.occupancy            239499                       # Layer occupancy (ticks)
system.membus.respLayer38.utilization             0.5                       # Layer utilization (%)
system.membus.respLayer41.occupancy            276750                       # Layer occupancy (ticks)
system.membus.respLayer41.utilization             0.6                       # Layer utilization (%)
system.membus.respLayer42.occupancy            208747                       # Layer occupancy (ticks)
system.membus.respLayer42.utilization             0.4                       # Layer utilization (%)
system.membus.respLayer45.occupancy            260250                       # Layer occupancy (ticks)
system.membus.respLayer45.utilization             0.5                       # Layer utilization (%)
system.membus.respLayer46.occupancy            218750                       # Layer occupancy (ticks)
system.membus.respLayer46.utilization             0.4                       # Layer utilization (%)
system.membus.respLayer49.occupancy            283000                       # Layer occupancy (ticks)
system.membus.respLayer49.utilization             0.6                       # Layer utilization (%)
system.membus.respLayer50.occupancy            228498                       # Layer occupancy (ticks)
system.membus.respLayer50.utilization             0.5                       # Layer utilization (%)
system.membus.respLayer53.occupancy            281500                       # Layer occupancy (ticks)
system.membus.respLayer53.utilization             0.6                       # Layer utilization (%)
system.membus.respLayer54.occupancy            234997                       # Layer occupancy (ticks)
system.membus.respLayer54.utilization             0.5                       # Layer utilization (%)
system.membus.respLayer57.occupancy            282499                       # Layer occupancy (ticks)
system.membus.respLayer57.utilization             0.6                       # Layer utilization (%)
system.membus.respLayer58.occupancy            210750                       # Layer occupancy (ticks)
system.membus.respLayer58.utilization             0.4                       # Layer utilization (%)
system.membus.respLayer61.occupancy            268500                       # Layer occupancy (ticks)
system.membus.respLayer61.utilization             0.5                       # Layer utilization (%)
system.membus.respLayer62.occupancy            230250                       # Layer occupancy (ticks)
system.membus.respLayer62.utilization             0.5                       # Layer utilization (%)

---------- End Simulation Statistics   ----------
