
---------- Begin Simulation Statistics ----------
sim_seconds                                  0.000034                       # Number of seconds simulated
sim_ticks                                    34316500                       # Number of ticks simulated
final_tick                                   34316500                       # Number of ticks from beginning of simulation (restored from checkpoints and never reset)
sim_freq                                 1000000000000                       # Frequency of simulated ticks
host_inst_rate                                 103636                       # Simulator instruction rate (inst/s)
host_op_rate                                   120435                       # Simulator op (including micro ops) rate (op/s)
host_tick_rate                              140798610                       # Simulator tick rate (ticks/s)
host_mem_usage                                 646672                       # Number of bytes of host memory used
host_seconds                                     0.24                       # Real time elapsed on the host
sim_insts                                       25255                       # Number of instructions simulated
sim_ops                                         29351                       # Number of ops (including micro ops) simulated
system.voltage_domain.voltage                       1                       # Voltage in Volts
system.clk_domain.clock                          1000                       # Clock period in ticks
system.mem_ctrls.bytes_read::cpu.inst           37120                       # Number of bytes read from this memory
system.mem_ctrls.bytes_read::cpu.data           19840                       # Number of bytes read from this memory
system.mem_ctrls.bytes_read::total              56960                       # Number of bytes read from this memory
system.mem_ctrls.bytes_inst_read::cpu.inst        37120                       # Number of instructions bytes read from this memory
system.mem_ctrls.bytes_inst_read::total         37120                       # Number of instructions bytes read from this memory
system.mem_ctrls.bytes_written::writebacks          256                       # Number of bytes written to this memory
system.mem_ctrls.bytes_written::total             256                       # Number of bytes written to this memory
system.mem_ctrls.num_reads::cpu.inst              580                       # Number of read requests responded to by this memory
system.mem_ctrls.num_reads::cpu.data              310                       # Number of read requests responded to by this memory
system.mem_ctrls.num_reads::total                 890                       # Number of read requests responded to by this memory
system.mem_ctrls.num_writes::writebacks             4                       # Number of write requests responded to by this memory
system.mem_ctrls.num_writes::total                  4                       # Number of write requests responded to by this memory
system.mem_ctrls.bw_read::cpu.inst         1081695394                       # Total read bandwidth from this memory (bytes/s)
system.mem_ctrls.bw_read::cpu.data          578147538                       # Total read bandwidth from this memory (bytes/s)
system.mem_ctrls.bw_read::total            1659842933                       # Total read bandwidth from this memory (bytes/s)
system.mem_ctrls.bw_inst_read::cpu.inst    1081695394                       # Instruction read bandwidth from this memory (bytes/s)
system.mem_ctrls.bw_inst_read::total       1081695394                       # Instruction read bandwidth from this memory (bytes/s)
system.mem_ctrls.bw_write::writebacks         7459968                       # Write bandwidth from this memory (bytes/s)
system.mem_ctrls.bw_write::total              7459968                       # Write bandwidth from this memory (bytes/s)
system.mem_ctrls.bw_total::writebacks         7459968                       # Total bandwidth to/from this memory (bytes/s)
system.mem_ctrls.bw_total::cpu.inst        1081695394                       # Total bandwidth to/from this memory (bytes/s)
system.mem_ctrls.bw_total::cpu.data         578147538                       # Total bandwidth to/from this memory (bytes/s)
system.mem_ctrls.bw_total::total           1667302901                       # Total bandwidth to/from this memory (bytes/s)
system.mem_ctrls.readReqs                         891                       # Number of read requests accepted
system.mem_ctrls.writeReqs                          4                       # Number of write requests accepted
system.mem_ctrls.readBursts                       891                       # Number of DRAM read bursts, including those serviced by the write queue
system.mem_ctrls.writeBursts                        4                       # Number of DRAM write bursts, including those merged in the write queue
system.mem_ctrls.bytesReadDRAM                  56896                       # Total number of bytes read from DRAM
system.mem_ctrls.bytesReadWrQ                     128                       # Total number of bytes read from write queue
system.mem_ctrls.bytesWritten                       0                       # Total number of bytes written to DRAM
system.mem_ctrls.bytesReadSys                   57024                       # Total read bytes from the system interface side
system.mem_ctrls.bytesWrittenSys                  256                       # Total written bytes from the system interface side
system.mem_ctrls.servicedByWrQ                      2                       # Number of DRAM read bursts serviced by the write queue
system.mem_ctrls.mergedWrBursts                     1                       # Number of DRAM write bursts merged with an existing one
system.mem_ctrls.neitherReadNorWriteReqs            0                       # Number of requests that are neither read nor write
system.mem_ctrls.perBankRdBursts::0               172                       # Per bank write bursts
system.mem_ctrls.perBankRdBursts::1               115                       # Per bank write bursts
system.mem_ctrls.perBankRdBursts::2               128                       # Per bank write bursts
system.mem_ctrls.perBankRdBursts::3               122                       # Per bank write bursts
system.mem_ctrls.perBankRdBursts::4                22                       # Per bank write bursts
system.mem_ctrls.perBankRdBursts::5                18                       # Per bank write bursts
system.mem_ctrls.perBankRdBursts::6                95                       # Per bank write bursts
system.mem_ctrls.perBankRdBursts::7                33                       # Per bank write bursts
system.mem_ctrls.perBankRdBursts::8                14                       # Per bank write bursts
system.mem_ctrls.perBankRdBursts::9                10                       # Per bank write bursts
system.mem_ctrls.perBankRdBursts::10                0                       # Per bank write bursts
system.mem_ctrls.perBankRdBursts::11               14                       # Per bank write bursts
system.mem_ctrls.perBankRdBursts::12                9                       # Per bank write bursts
system.mem_ctrls.perBankRdBursts::13               38                       # Per bank write bursts
system.mem_ctrls.perBankRdBursts::14               40                       # Per bank write bursts
system.mem_ctrls.perBankRdBursts::15               59                       # Per bank write bursts
system.mem_ctrls.perBankWrBursts::0                 0                       # Per bank write bursts
system.mem_ctrls.perBankWrBursts::1                 0                       # Per bank write bursts
system.mem_ctrls.perBankWrBursts::2                 0                       # Per bank write bursts
system.mem_ctrls.perBankWrBursts::3                 0                       # Per bank write bursts
system.mem_ctrls.perBankWrBursts::4                 0                       # Per bank write bursts
system.mem_ctrls.perBankWrBursts::5                 0                       # Per bank write bursts
system.mem_ctrls.perBankWrBursts::6                 0                       # Per bank write bursts
system.mem_ctrls.perBankWrBursts::7                 0                       # Per bank write bursts
system.mem_ctrls.perBankWrBursts::8                 0                       # Per bank write bursts
system.mem_ctrls.perBankWrBursts::9                 0                       # Per bank write bursts
system.mem_ctrls.perBankWrBursts::10                0                       # Per bank write bursts
system.mem_ctrls.perBankWrBursts::11                0                       # Per bank write bursts
system.mem_ctrls.perBankWrBursts::12                0                       # Per bank write bursts
system.mem_ctrls.perBankWrBursts::13                0                       # Per bank write bursts
system.mem_ctrls.perBankWrBursts::14                0                       # Per bank write bursts
system.mem_ctrls.perBankWrBursts::15                0                       # Per bank write bursts
system.mem_ctrls.numRdRetry                         0                       # Number of times read queue was full causing retry
system.mem_ctrls.numWrRetry                         0                       # Number of times write queue was full causing retry
system.mem_ctrls.totGap                      34309000                       # Total gap between requests
system.mem_ctrls.readPktSize::0                     0                       # Read request sizes (log2)
system.mem_ctrls.readPktSize::1                     0                       # Read request sizes (log2)
system.mem_ctrls.readPktSize::2                     0                       # Read request sizes (log2)
system.mem_ctrls.readPktSize::3                     0                       # Read request sizes (log2)
system.mem_ctrls.readPktSize::4                     0                       # Read request sizes (log2)
system.mem_ctrls.readPktSize::5                     0                       # Read request sizes (log2)
system.mem_ctrls.readPktSize::6                   891                       # Read request sizes (log2)
system.mem_ctrls.writePktSize::0                    0                       # Write request sizes (log2)
system.mem_ctrls.writePktSize::1                    0                       # Write request sizes (log2)
system.mem_ctrls.writePktSize::2                    0                       # Write request sizes (log2)
system.mem_ctrls.writePktSize::3                    0                       # Write request sizes (log2)
system.mem_ctrls.writePktSize::4                    0                       # Write request sizes (log2)
system.mem_ctrls.writePktSize::5                    0                       # Write request sizes (log2)
system.mem_ctrls.writePktSize::6                    4                       # Write request sizes (log2)
system.mem_ctrls.rdQLenPdf::0                     484                       # What read queue length does an incoming req see
system.mem_ctrls.rdQLenPdf::1                     284                       # What read queue length does an incoming req see
system.mem_ctrls.rdQLenPdf::2                      83                       # What read queue length does an incoming req see
system.mem_ctrls.rdQLenPdf::3                      26                       # What read queue length does an incoming req see
system.mem_ctrls.rdQLenPdf::4                       9                       # What read queue length does an incoming req see
system.mem_ctrls.rdQLenPdf::5                       3                       # What read queue length does an incoming req see
system.mem_ctrls.rdQLenPdf::6                       0                       # What read queue length does an incoming req see
system.mem_ctrls.rdQLenPdf::7                       0                       # What read queue length does an incoming req see
system.mem_ctrls.rdQLenPdf::8                       0                       # What read queue length does an incoming req see
system.mem_ctrls.rdQLenPdf::9                       0                       # What read queue length does an incoming req see
system.mem_ctrls.rdQLenPdf::10                      0                       # What read queue length does an incoming req see
system.mem_ctrls.rdQLenPdf::11                      0                       # What read queue length does an incoming req see
system.mem_ctrls.rdQLenPdf::12                      0                       # What read queue length does an incoming req see
system.mem_ctrls.rdQLenPdf::13                      0                       # What read queue length does an incoming req see
system.mem_ctrls.rdQLenPdf::14                      0                       # What read queue length does an incoming req see
system.mem_ctrls.rdQLenPdf::15                      0                       # What read queue length does an incoming req see
system.mem_ctrls.rdQLenPdf::16                      0                       # What read queue length does an incoming req see
system.mem_ctrls.rdQLenPdf::17                      0                       # What read queue length does an incoming req see
system.mem_ctrls.rdQLenPdf::18                      0                       # What read queue length does an incoming req see
system.mem_ctrls.rdQLenPdf::19                      0                       # What read queue length does an incoming req see
system.mem_ctrls.rdQLenPdf::20                      0                       # What read queue length does an incoming req see
system.mem_ctrls.rdQLenPdf::21                      0                       # What read queue length does an incoming req see
system.mem_ctrls.rdQLenPdf::22                      0                       # What read queue length does an incoming req see
system.mem_ctrls.rdQLenPdf::23                      0                       # What read queue length does an incoming req see
system.mem_ctrls.rdQLenPdf::24                      0                       # What read queue length does an incoming req see
system.mem_ctrls.rdQLenPdf::25                      0                       # What read queue length does an incoming req see
system.mem_ctrls.rdQLenPdf::26                      0                       # What read queue length does an incoming req see
system.mem_ctrls.rdQLenPdf::27                      0                       # What read queue length does an incoming req see
system.mem_ctrls.rdQLenPdf::28                      0                       # What read queue length does an incoming req see
system.mem_ctrls.rdQLenPdf::29                      0                       # What read queue length does an incoming req see
system.mem_ctrls.rdQLenPdf::30                      0                       # What read queue length does an incoming req see
system.mem_ctrls.rdQLenPdf::31                      0                       # What read queue length does an incoming req see
system.mem_ctrls.wrQLenPdf::0                       1                       # What write queue length does an incoming req see
system.mem_ctrls.wrQLenPdf::1                       1                       # What write queue length does an incoming req see
system.mem_ctrls.wrQLenPdf::2                       1                       # What write queue length does an incoming req see
system.mem_ctrls.wrQLenPdf::3                       0                       # What write queue length does an incoming req see
system.mem_ctrls.wrQLenPdf::4                       0                       # What write queue length does an incoming req see
system.mem_ctrls.wrQLenPdf::5                       0                       # What write queue length does an incoming req see
system.mem_ctrls.wrQLenPdf::6                       0                       # What write queue length does an incoming req see
system.mem_ctrls.wrQLenPdf::7                       0                       # What write queue length does an incoming req see
system.mem_ctrls.wrQLenPdf::8                       0                       # What write queue length does an incoming req see
system.mem_ctrls.wrQLenPdf::9                       0                       # What write queue length does an incoming req see
system.mem_ctrls.wrQLenPdf::10                      0                       # What write queue length does an incoming req see
system.mem_ctrls.wrQLenPdf::11                      0                       # What write queue length does an incoming req see
system.mem_ctrls.wrQLenPdf::12                      0                       # What write queue length does an incoming req see
system.mem_ctrls.wrQLenPdf::13                      0                       # What write queue length does an incoming req see
system.mem_ctrls.wrQLenPdf::14                      0                       # What write queue length does an incoming req see
system.mem_ctrls.wrQLenPdf::15                      0                       # What write queue length does an incoming req see
system.mem_ctrls.wrQLenPdf::16                      0                       # What write queue length does an incoming req see
system.mem_ctrls.wrQLenPdf::17                      0                       # What write queue length does an incoming req see
system.mem_ctrls.wrQLenPdf::18                      0                       # What write queue length does an incoming req see
system.mem_ctrls.wrQLenPdf::19                      0                       # What write queue length does an incoming req see
system.mem_ctrls.wrQLenPdf::20                      0                       # What write queue length does an incoming req see
system.mem_ctrls.wrQLenPdf::21                      0                       # What write queue length does an incoming req see
system.mem_ctrls.wrQLenPdf::22                      0                       # What write queue length does an incoming req see
system.mem_ctrls.wrQLenPdf::23                      0                       # What write queue length does an incoming req see
system.mem_ctrls.wrQLenPdf::24                      0                       # What write queue length does an incoming req see
system.mem_ctrls.wrQLenPdf::25                      0                       # What write queue length does an incoming req see
system.mem_ctrls.wrQLenPdf::26                      0                       # What write queue length does an incoming req see
system.mem_ctrls.wrQLenPdf::27                      0                       # What write queue length does an incoming req see
system.mem_ctrls.wrQLenPdf::28                      0                       # What write queue length does an incoming req see
system.mem_ctrls.wrQLenPdf::29                      0                       # What write queue length does an incoming req see
system.mem_ctrls.wrQLenPdf::30                      0                       # What write queue length does an incoming req see
system.mem_ctrls.wrQLenPdf::31                      0                       # What write queue length does an incoming req see
system.mem_ctrls.wrQLenPdf::32                      0                       # What write queue length does an incoming req see
system.mem_ctrls.wrQLenPdf::33                      0                       # What write queue length does an incoming req see
system.mem_ctrls.wrQLenPdf::34                      0                       # What write queue length does an incoming req see
system.mem_ctrls.wrQLenPdf::35                      0                       # What write queue length does an incoming req see
system.mem_ctrls.wrQLenPdf::36                      0                       # What write queue length does an incoming req see
system.mem_ctrls.wrQLenPdf::37                      0                       # What write queue length does an incoming req see
system.mem_ctrls.wrQLenPdf::38                      0                       # What write queue length does an incoming req see
system.mem_ctrls.wrQLenPdf::39                      0                       # What write queue length does an incoming req see
system.mem_ctrls.wrQLenPdf::40                      0                       # What write queue length does an incoming req see
system.mem_ctrls.wrQLenPdf::41                      0                       # What write queue length does an incoming req see
system.mem_ctrls.wrQLenPdf::42                      0                       # What write queue length does an incoming req see
system.mem_ctrls.wrQLenPdf::43                      0                       # What write queue length does an incoming req see
system.mem_ctrls.wrQLenPdf::44                      0                       # What write queue length does an incoming req see
system.mem_ctrls.wrQLenPdf::45                      0                       # What write queue length does an incoming req see
system.mem_ctrls.wrQLenPdf::46                      0                       # What write queue length does an incoming req see
system.mem_ctrls.wrQLenPdf::47                      0                       # What write queue length does an incoming req see
system.mem_ctrls.wrQLenPdf::48                      0                       # What write queue length does an incoming req see
system.mem_ctrls.wrQLenPdf::49                      0                       # What write queue length does an incoming req see
system.mem_ctrls.wrQLenPdf::50                      0                       # What write queue length does an incoming req see
system.mem_ctrls.wrQLenPdf::51                      0                       # What write queue length does an incoming req see
system.mem_ctrls.wrQLenPdf::52                      0                       # What write queue length does an incoming req see
system.mem_ctrls.wrQLenPdf::53                      0                       # What write queue length does an incoming req see
system.mem_ctrls.wrQLenPdf::54                      0                       # What write queue length does an incoming req see
system.mem_ctrls.wrQLenPdf::55                      0                       # What write queue length does an incoming req see
system.mem_ctrls.wrQLenPdf::56                      0                       # What write queue length does an incoming req see
system.mem_ctrls.wrQLenPdf::57                      0                       # What write queue length does an incoming req see
system.mem_ctrls.wrQLenPdf::58                      0                       # What write queue length does an incoming req see
system.mem_ctrls.wrQLenPdf::59                      0                       # What write queue length does an incoming req see
system.mem_ctrls.wrQLenPdf::60                      0                       # What write queue length does an incoming req see
system.mem_ctrls.wrQLenPdf::61                      0                       # What write queue length does an incoming req see
system.mem_ctrls.wrQLenPdf::62                      0                       # What write queue length does an incoming req see
system.mem_ctrls.wrQLenPdf::63                      0                       # What write queue length does an incoming req see
system.mem_ctrls.bytesPerActivate::samples          164                       # Bytes accessed per row activation
system.mem_ctrls.bytesPerActivate::mean    331.707317                       # Bytes accessed per row activation
system.mem_ctrls.bytesPerActivate::gmean   209.681655                       # Bytes accessed per row activation
system.mem_ctrls.bytesPerActivate::stdev   314.275659                       # Bytes accessed per row activation
system.mem_ctrls.bytesPerActivate::0-127           48     29.27%     29.27% # Bytes accessed per row activation
system.mem_ctrls.bytesPerActivate::128-255           43     26.22%     55.49% # Bytes accessed per row activation
system.mem_ctrls.bytesPerActivate::256-383           18     10.98%     66.46% # Bytes accessed per row activation
system.mem_ctrls.bytesPerActivate::384-511           14      8.54%     75.00% # Bytes accessed per row activation
system.mem_ctrls.bytesPerActivate::512-639           10      6.10%     81.10% # Bytes accessed per row activation
system.mem_ctrls.bytesPerActivate::640-767            5      3.05%     84.15% # Bytes accessed per row activation
system.mem_ctrls.bytesPerActivate::768-895            8      4.88%     89.02% # Bytes accessed per row activation
system.mem_ctrls.bytesPerActivate::896-1023            3      1.83%     90.85% # Bytes accessed per row activation
system.mem_ctrls.bytesPerActivate::1024-1151           15      9.15%    100.00% # Bytes accessed per row activation
system.mem_ctrls.bytesPerActivate::total          164                       # Bytes accessed per row activation
system.mem_ctrls.totQLat                      8926250                       # Total ticks spent queuing
system.mem_ctrls.totMemAccLat                25595000                       # Total ticks spent from burst creation until serviced by the DRAM
system.mem_ctrls.totBusLat                    4445000                       # Total ticks spent in databus transfers
system.mem_ctrls.avgQLat                     10040.78                       # Average queueing delay per DRAM burst
system.mem_ctrls.avgBusLat                    5000.00                       # Average bus latency per DRAM burst
system.mem_ctrls.avgMemAccLat                28790.78                       # Average memory access latency per DRAM burst
system.mem_ctrls.avgRdBW                      1657.98                       # Average DRAM read bandwidth in MiByte/s
system.mem_ctrls.avgWrBW                         0.00                       # Average achieved write bandwidth in MiByte/s
system.mem_ctrls.avgRdBWSys                   1661.71                       # Average system read bandwidth in MiByte/s
system.mem_ctrls.avgWrBWSys                      7.46                       # Average system write bandwidth in MiByte/s
system.mem_ctrls.peakBW                      12800.00                       # Theoretical peak bandwidth in MiByte/s
system.mem_ctrls.busUtil                        12.95                       # Data bus utilization in percentage
system.mem_ctrls.busUtilRead                    12.95                       # Data bus utilization in percentage for reads
system.mem_ctrls.busUtilWrite                    0.00                       # Data bus utilization in percentage for writes
system.mem_ctrls.avgRdQLen                       1.74                       # Average read queue length when enqueuing
system.mem_ctrls.avgWrQLen                       0.72                       # Average write queue length when enqueuing
system.mem_ctrls.readRowHits                      714                       # Number of row buffer hits during reads
system.mem_ctrls.writeRowHits                       0                       # Number of row buffer hits during writes
system.mem_ctrls.readRowHitRate                 80.31                       # Row buffer hit rate for reads
system.mem_ctrls.writeRowHitRate                 0.00                       # Row buffer hit rate for writes
system.mem_ctrls.avgGap                      38334.08                       # Average gap between requests
system.mem_ctrls.pageHitRate                    80.04                       # Row buffer hit rate, read and write combined
system.mem_ctrls_0.actEnergy                   967680                       # Energy for activate commands per rank (pJ)
system.mem_ctrls_0.preEnergy                   528000                       # Energy for precharge commands per rank (pJ)
system.mem_ctrls_0.readEnergy                 5233800                       # Energy for read commands per rank (pJ)
system.mem_ctrls_0.writeEnergy                      0                       # Energy for write commands per rank (pJ)
system.mem_ctrls_0.refreshEnergy              2034240                       # Energy for refresh commands per rank (pJ)
system.mem_ctrls_0.actBackEnergy             21414330                       # Energy for active background per rank (pJ)
system.mem_ctrls_0.preBackEnergy                58500                       # Energy for precharge background per rank (pJ)
system.mem_ctrls_0.totalEnergy               30236550                       # Total energy per rank (pJ)
system.mem_ctrls_0.averagePower            962.794141                       # Core power per rank (mW)
system.mem_ctrls_0.memoryStateTime::IDLE         1000                       # Time in different power states
system.mem_ctrls_0.memoryStateTime::REF       1040000                       # Time in different power states
system.mem_ctrls_0.memoryStateTime::PRE_PDN            0                       # Time in different power states
system.mem_ctrls_0.memoryStateTime::ACT      30377750                       # Time in different power states
system.mem_ctrls_0.memoryStateTime::ACT_PDN            0                       # Time in different power states
system.mem_ctrls_1.actEnergy                   204120                       # Energy for activate commands per rank (pJ)
system.mem_ctrls_1.preEnergy                   111375                       # Energy for precharge commands per rank (pJ)
system.mem_ctrls_1.readEnergy                 1107600                       # Energy for read commands per rank (pJ)
system.mem_ctrls_1.writeEnergy                      0                       # Energy for write commands per rank (pJ)
system.mem_ctrls_1.refreshEnergy              2034240                       # Energy for refresh commands per rank (pJ)
system.mem_ctrls_1.actBackEnergy             20767950                       # Energy for active background per rank (pJ)
system.mem_ctrls_1.preBackEnergy               625500                       # Energy for precharge background per rank (pJ)
system.mem_ctrls_1.totalEnergy               24850785                       # Total energy per rank (pJ)
system.mem_ctrls_1.averagePower            791.300271                       # Core power per rank (mW)
system.mem_ctrls_1.memoryStateTime::IDLE      1235750                       # Time in different power states
system.mem_ctrls_1.memoryStateTime::REF       1040000                       # Time in different power states
system.mem_ctrls_1.memoryStateTime::PRE_PDN            0                       # Time in different power states
system.mem_ctrls_1.memoryStateTime::ACT      29432750                       # Time in different power states
system.mem_ctrls_1.memoryStateTime::ACT_PDN            0                       # Time in different power states
system.cpu.branchPred.lookups                    7534                       # Number of BP lookups
system.cpu.branchPred.condPredicted              5585                       # Number of conditional branches predicted
system.cpu.branchPred.condIncorrect               903                       # Number of conditional branches incorrect
system.cpu.branchPred.BTBLookups                 5658                       # Number of BTB lookups
system.cpu.branchPred.BTBHits                    2721                       # Number of BTB hits
system.cpu.branchPred.BTBCorrect                    0                       # Number of correct BTB predictions (this stat may not work properly.
system.cpu.branchPred.BTBHitPct             48.091198                       # BTB Hit Percentage
system.cpu.branchPred.usedRAS                     757                       # Number of times the RAS was used to get a target.
system.cpu.branchPred.RASInCorrect                 14                       # Number of incorrect RAS predictions.
system.cpu_voltage_domain.voltage                   1                       # Voltage in Volts
system.cpu_clk_domain.clock                       500                       # Clock period in ticks
system.cpu.dstage2_mmu.stage2_tlb.walker.walks            0                       # Table walker walks requested
system.cpu.dstage2_mmu.stage2_tlb.walker.walkRequestOrigin_Requested::Data            0                       # Table walker requests started/completed, data/inst
system.cpu.dstage2_mmu.stage2_tlb.walker.walkRequestOrigin_Requested::Inst            0                       # Table walker requests started/completed, data/inst
system.cpu.dstage2_mmu.stage2_tlb.walker.walkRequestOrigin_Requested::total            0                       # Table walker requests started/completed, data/inst
system.cpu.dstage2_mmu.stage2_tlb.walker.walkRequestOrigin_Completed::Data            0                       # Table walker requests started/completed, data/inst
system.cpu.dstage2_mmu.stage2_tlb.walker.walkRequestOrigin_Completed::Inst            0                       # Table walker requests started/completed, data/inst
system.cpu.dstage2_mmu.stage2_tlb.walker.walkRequestOrigin_Completed::total            0                       # Table walker requests started/completed, data/inst
system.cpu.dstage2_mmu.stage2_tlb.walker.walkRequestOrigin::total            0                       # Table walker requests started/completed, data/inst
system.cpu.dstage2_mmu.stage2_tlb.inst_hits            0                       # ITB inst hits
system.cpu.dstage2_mmu.stage2_tlb.inst_misses            0                       # ITB inst misses
system.cpu.dstage2_mmu.stage2_tlb.read_hits            0                       # DTB read hits
system.cpu.dstage2_mmu.stage2_tlb.read_misses            0                       # DTB read misses
system.cpu.dstage2_mmu.stage2_tlb.write_hits            0                       # DTB write hits
system.cpu.dstage2_mmu.stage2_tlb.write_misses            0                       # DTB write misses
system.cpu.dstage2_mmu.stage2_tlb.flush_tlb            0                       # Number of times complete TLB was flushed
system.cpu.dstage2_mmu.stage2_tlb.flush_tlb_mva            0                       # Number of times TLB was flushed by MVA
system.cpu.dstage2_mmu.stage2_tlb.flush_tlb_mva_asid            0                       # Number of times TLB was flushed by MVA & ASID
system.cpu.dstage2_mmu.stage2_tlb.flush_tlb_asid            0                       # Number of times TLB was flushed by ASID
system.cpu.dstage2_mmu.stage2_tlb.flush_entries            0                       # Number of entries that have been flushed from TLB
system.cpu.dstage2_mmu.stage2_tlb.align_faults            0                       # Number of TLB faults due to alignment restrictions
system.cpu.dstage2_mmu.stage2_tlb.prefetch_faults            0                       # Number of TLB faults due to prefetch
system.cpu.dstage2_mmu.stage2_tlb.domain_faults            0                       # Number of TLB faults due to domain restrictions
system.cpu.dstage2_mmu.stage2_tlb.perms_faults            0                       # Number of TLB faults due to permissions restrictions
system.cpu.dstage2_mmu.stage2_tlb.read_accesses            0                       # DTB read accesses
system.cpu.dstage2_mmu.stage2_tlb.write_accesses            0                       # DTB write accesses
system.cpu.dstage2_mmu.stage2_tlb.inst_accesses            0                       # ITB inst accesses
system.cpu.dstage2_mmu.stage2_tlb.hits              0                       # DTB hits
system.cpu.dstage2_mmu.stage2_tlb.misses            0                       # DTB misses
system.cpu.dstage2_mmu.stage2_tlb.accesses            0                       # DTB accesses
system.cpu.dtb.walker.walks                         0                       # Table walker walks requested
system.cpu.dtb.walker.walkRequestOrigin_Requested::Data            0                       # Table walker requests started/completed, data/inst
system.cpu.dtb.walker.walkRequestOrigin_Requested::Inst            0                       # Table walker requests started/completed, data/inst
system.cpu.dtb.walker.walkRequestOrigin_Requested::total            0                       # Table walker requests started/completed, data/inst
system.cpu.dtb.walker.walkRequestOrigin_Completed::Data            0                       # Table walker requests started/completed, data/inst
system.cpu.dtb.walker.walkRequestOrigin_Completed::Inst            0                       # Table walker requests started/completed, data/inst
system.cpu.dtb.walker.walkRequestOrigin_Completed::total            0                       # Table walker requests started/completed, data/inst
system.cpu.dtb.walker.walkRequestOrigin::total            0                       # Table walker requests started/completed, data/inst
system.cpu.dtb.inst_hits                            0                       # ITB inst hits
system.cpu.dtb.inst_misses                          0                       # ITB inst misses
system.cpu.dtb.read_hits                            0                       # DTB read hits
system.cpu.dtb.read_misses                          0                       # DTB read misses
system.cpu.dtb.write_hits                           0                       # DTB write hits
system.cpu.dtb.write_misses                         0                       # DTB write misses
system.cpu.dtb.flush_tlb                            0                       # Number of times complete TLB was flushed
system.cpu.dtb.flush_tlb_mva                        0                       # Number of times TLB was flushed by MVA
system.cpu.dtb.flush_tlb_mva_asid                   0                       # Number of times TLB was flushed by MVA & ASID
system.cpu.dtb.flush_tlb_asid                       0                       # Number of times TLB was flushed by ASID
system.cpu.dtb.flush_entries                        0                       # Number of entries that have been flushed from TLB
system.cpu.dtb.align_faults                         0                       # Number of TLB faults due to alignment restrictions
system.cpu.dtb.prefetch_faults                      0                       # Number of TLB faults due to prefetch
system.cpu.dtb.domain_faults                        0                       # Number of TLB faults due to domain restrictions
system.cpu.dtb.perms_faults                         0                       # Number of TLB faults due to permissions restrictions
system.cpu.dtb.read_accesses                        0                       # DTB read accesses
system.cpu.dtb.write_accesses                       0                       # DTB write accesses
system.cpu.dtb.inst_accesses                        0                       # ITB inst accesses
system.cpu.dtb.hits                                 0                       # DTB hits
system.cpu.dtb.misses                               0                       # DTB misses
system.cpu.dtb.accesses                             0                       # DTB accesses
system.cpu.istage2_mmu.stage2_tlb.walker.walks            0                       # Table walker walks requested
system.cpu.istage2_mmu.stage2_tlb.walker.walkRequestOrigin_Requested::Data            0                       # Table walker requests started/completed, data/inst
system.cpu.istage2_mmu.stage2_tlb.walker.walkRequestOrigin_Requested::Inst            0                       # Table walker requests started/completed, data/inst
system.cpu.istage2_mmu.stage2_tlb.walker.walkRequestOrigin_Requested::total            0                       # Table walker requests started/completed, data/inst
system.cpu.istage2_mmu.stage2_tlb.walker.walkRequestOrigin_Completed::Data            0                       # Table walker requests started/completed, data/inst
system.cpu.istage2_mmu.stage2_tlb.walker.walkRequestOrigin_Completed::Inst            0                       # Table walker requests started/completed, data/inst
system.cpu.istage2_mmu.stage2_tlb.walker.walkRequestOrigin_Completed::total            0                       # Table walker requests started/completed, data/inst
system.cpu.istage2_mmu.stage2_tlb.walker.walkRequestOrigin::total            0                       # Table walker requests started/completed, data/inst
system.cpu.istage2_mmu.stage2_tlb.inst_hits            0                       # ITB inst hits
system.cpu.istage2_mmu.stage2_tlb.inst_misses            0                       # ITB inst misses
system.cpu.istage2_mmu.stage2_tlb.read_hits            0                       # DTB read hits
system.cpu.istage2_mmu.stage2_tlb.read_misses            0                       # DTB read misses
system.cpu.istage2_mmu.stage2_tlb.write_hits            0                       # DTB write hits
system.cpu.istage2_mmu.stage2_tlb.write_misses            0                       # DTB write misses
system.cpu.istage2_mmu.stage2_tlb.flush_tlb            0                       # Number of times complete TLB was flushed
system.cpu.istage2_mmu.stage2_tlb.flush_tlb_mva            0                       # Number of times TLB was flushed by MVA
system.cpu.istage2_mmu.stage2_tlb.flush_tlb_mva_asid            0                       # Number of times TLB was flushed by MVA & ASID
system.cpu.istage2_mmu.stage2_tlb.flush_tlb_asid            0                       # Number of times TLB was flushed by ASID
system.cpu.istage2_mmu.stage2_tlb.flush_entries            0                       # Number of entries that have been flushed from TLB
system.cpu.istage2_mmu.stage2_tlb.align_faults            0                       # Number of TLB faults due to alignment restrictions
system.cpu.istage2_mmu.stage2_tlb.prefetch_faults            0                       # Number of TLB faults due to prefetch
system.cpu.istage2_mmu.stage2_tlb.domain_faults            0                       # Number of TLB faults due to domain restrictions
system.cpu.istage2_mmu.stage2_tlb.perms_faults            0                       # Number of TLB faults due to permissions restrictions
system.cpu.istage2_mmu.stage2_tlb.read_accesses            0                       # DTB read accesses
system.cpu.istage2_mmu.stage2_tlb.write_accesses            0                       # DTB write accesses
system.cpu.istage2_mmu.stage2_tlb.inst_accesses            0                       # ITB inst accesses
system.cpu.istage2_mmu.stage2_tlb.hits              0                       # DTB hits
system.cpu.istage2_mmu.stage2_tlb.misses            0                       # DTB misses
system.cpu.istage2_mmu.stage2_tlb.accesses            0                       # DTB accesses
system.cpu.itb.walker.walks                         0                       # Table walker walks requested
system.cpu.itb.walker.walkRequestOrigin_Requested::Data            0                       # Table walker requests started/completed, data/inst
system.cpu.itb.walker.walkRequestOrigin_Requested::Inst            0                       # Table walker requests started/completed, data/inst
system.cpu.itb.walker.walkRequestOrigin_Requested::total            0                       # Table walker requests started/completed, data/inst
system.cpu.itb.walker.walkRequestOrigin_Completed::Data            0                       # Table walker requests started/completed, data/inst
system.cpu.itb.walker.walkRequestOrigin_Completed::Inst            0                       # Table walker requests started/completed, data/inst
system.cpu.itb.walker.walkRequestOrigin_Completed::total            0                       # Table walker requests started/completed, data/inst
system.cpu.itb.walker.walkRequestOrigin::total            0                       # Table walker requests started/completed, data/inst
system.cpu.itb.inst_hits                            0                       # ITB inst hits
system.cpu.itb.inst_misses                          0                       # ITB inst misses
system.cpu.itb.read_hits                            0                       # DTB read hits
system.cpu.itb.read_misses                          0                       # DTB read misses
system.cpu.itb.write_hits                           0                       # DTB write hits
system.cpu.itb.write_misses                         0                       # DTB write misses
system.cpu.itb.flush_tlb                            0                       # Number of times complete TLB was flushed
system.cpu.itb.flush_tlb_mva                        0                       # Number of times TLB was flushed by MVA
system.cpu.itb.flush_tlb_mva_asid                   0                       # Number of times TLB was flushed by MVA & ASID
system.cpu.itb.flush_tlb_asid                       0                       # Number of times TLB was flushed by ASID
system.cpu.itb.flush_entries                        0                       # Number of entries that have been flushed from TLB
system.cpu.itb.align_faults                         0                       # Number of TLB faults due to alignment restrictions
system.cpu.itb.prefetch_faults                      0                       # Number of TLB faults due to prefetch
system.cpu.itb.domain_faults                        0                       # Number of TLB faults due to domain restrictions
system.cpu.itb.perms_faults                         0                       # Number of TLB faults due to permissions restrictions
system.cpu.itb.read_accesses                        0                       # DTB read accesses
system.cpu.itb.write_accesses                       0                       # DTB write accesses
system.cpu.itb.inst_accesses                        0                       # ITB inst accesses
system.cpu.itb.hits                                 0                       # DTB hits
system.cpu.itb.misses                               0                       # DTB misses
system.cpu.itb.accesses                             0                       # DTB accesses
system.cpu.workload.num_syscalls                   15                       # Number of system calls
system.cpu.numCycles                            68634                       # number of cpu cycles simulated
system.cpu.numWorkItemsStarted                      0                       # number of work items this cpu started
system.cpu.numWorkItemsCompleted                    0                       # number of work items this cpu completed
system.cpu.fetch.icacheStallCycles              18071                       # Number of cycles fetch is stalled on an Icache miss
system.cpu.fetch.Insts                          44280                       # Number of instructions fetch has processed
system.cpu.fetch.Branches                        7534                       # Number of branches that fetch encountered
system.cpu.fetch.predictedBranches               3478                       # Number of branches that fetch has predicted taken
system.cpu.fetch.Cycles                         17446                       # Number of cycles fetch has run and was not squashing or blocked
system.cpu.fetch.SquashCycles                    1915                       # Number of cycles fetch has spent squashing
system.cpu.fetch.MiscStallCycles                    1                       # Number of cycles fetch has spent waiting on interrupts, or bad addresses, or out of MSHRs
system.cpu.fetch.CacheLines                      5869                       # Number of cache lines fetched
system.cpu.fetch.IcacheSquashes                   590                       # Number of outstanding Icache misses that were squashed
system.cpu.fetch.rateDist::samples              36475                       # Number of instructions fetched each cycle (Total)
system.cpu.fetch.rateDist::mean              1.404003                       # Number of instructions fetched each cycle (Total)
system.cpu.fetch.rateDist::stdev             2.787775                       # Number of instructions fetched each cycle (Total)
system.cpu.fetch.rateDist::underflows               0      0.00%      0.00% # Number of instructions fetched each cycle (Total)
system.cpu.fetch.rateDist::0                    27789     76.19%     76.19% # Number of instructions fetched each cycle (Total)
system.cpu.fetch.rateDist::1                      644      1.77%     77.95% # Number of instructions fetched each cycle (Total)
system.cpu.fetch.rateDist::2                      824      2.26%     80.21% # Number of instructions fetched each cycle (Total)
system.cpu.fetch.rateDist::3                      557      1.53%     81.74% # Number of instructions fetched each cycle (Total)
system.cpu.fetch.rateDist::4                      578      1.58%     83.32% # Number of instructions fetched each cycle (Total)
system.cpu.fetch.rateDist::5                      431      1.18%     84.50% # Number of instructions fetched each cycle (Total)
system.cpu.fetch.rateDist::6                      593      1.63%     86.13% # Number of instructions fetched each cycle (Total)
system.cpu.fetch.rateDist::7                     1249      3.42%     89.55% # Number of instructions fetched each cycle (Total)
system.cpu.fetch.rateDist::8                     3810     10.45%    100.00% # Number of instructions fetched each cycle (Total)
system.cpu.fetch.rateDist::overflows                0      0.00%    100.00% # Number of instructions fetched each cycle (Total)
system.cpu.fetch.rateDist::min_value                0                       # Number of instructions fetched each cycle (Total)
system.cpu.fetch.rateDist::max_value                8                       # Number of instructions fetched each cycle (Total)
system.cpu.fetch.rateDist::total                36475                       # Number of instructions fetched each cycle (Total)
system.cpu.fetch.branchRate                  0.109771                       # Number of branch fetches per cycle
system.cpu.fetch.rate                        0.645161                       # Number of inst fetches per cycle
system.cpu.decode.IdleCycles                    14485                       # Number of cycles decode is idle
system.cpu.decode.BlockedCycles                 13722                       # Number of cycles decode is blocked
system.cpu.decode.RunCycles                      7031                       # Number of cycles decode is running
system.cpu.decode.UnblockCycles                   557                       # Number of cycles decode is unblocking
system.cpu.decode.SquashCycles                    680                       # Number of cycles decode is squashing
system.cpu.decode.BranchResolved                  819                       # Number of times decode resolved a branch
system.cpu.decode.BranchMispred                   289                       # Number of times decode detected a branch misprediction
system.cpu.decode.DecodedInsts                  45673                       # Number of instructions handled by decode
system.cpu.decode.SquashedInsts                  1024                       # Number of squashed instructions handled by decode
system.cpu.rename.SquashCycles                    680                       # Number of cycles rename is squashing
system.cpu.rename.IdleCycles                    15085                       # Number of cycles rename is idle
system.cpu.rename.BlockCycles                    2286                       # Number of cycles rename is blocking
system.cpu.rename.serializeStallCycles           5687                       # count of cycles rename stalled for serializing inst
system.cpu.rename.RunCycles                      6951                       # Number of cycles rename is running
system.cpu.rename.UnblockCycles                  5786                       # Number of cycles rename is unblocking
system.cpu.rename.RenamedInsts                  43958                       # Number of instructions processed by rename
system.cpu.rename.ROBFullEvents                     4                       # Number of times rename has blocked due to ROB full
system.cpu.rename.IQFullEvents                    102                       # Number of times rename has blocked due to IQ full
system.cpu.rename.LQFullEvents                    226                       # Number of times rename has blocked due to LQ full
system.cpu.rename.SQFullEvents                   5272                       # Number of times rename has blocked due to SQ full
system.cpu.rename.RenamedOperands               49150                       # Number of destination operands rename has renamed
system.cpu.rename.RenameLookups                207644                       # Number of register rename lookups that rename has made
system.cpu.rename.int_rename_lookups            56578                       # Number of integer rename lookups
system.cpu.rename.fp_rename_lookups                22                       # Number of floating rename lookups
system.cpu.rename.CommittedMaps                 33027                       # Number of HB maps that are committed
system.cpu.rename.UndoneMaps                    16123                       # Number of HB maps that are undone due to squashing
system.cpu.rename.serializingInsts                112                       # count of serializing insts renamed
system.cpu.rename.tempSerializingInsts            111                       # count of temporary serializing insts renamed
system.cpu.rename.skidInsts                      2551                       # count of insts added to the skid buffer
system.cpu.memDep0.insertedLoads                 7852                       # Number of loads inserted to the mem dependence unit.
system.cpu.memDep0.insertedStores                5754                       # Number of stores inserted to the mem dependence unit.
system.cpu.memDep0.conflictingLoads               690                       # Number of conflicting loads.
system.cpu.memDep0.conflictingStores              531                       # Number of conflicting stores.
system.cpu.iq.iqInstsAdded                      41011                       # Number of instructions added to the IQ (excludes non-spec)
system.cpu.iq.iqNonSpecInstsAdded                 242                       # Number of non-speculative instructions added to the IQ
system.cpu.iq.iqInstsIssued                     35825                       # Number of instructions issued
system.cpu.iq.iqSquashedInstsIssued                60                       # Number of squashed instructions issued
system.cpu.iq.iqSquashedInstsExamined           11902                       # Number of squashed instructions iterated over during squash; mainly for profiling
system.cpu.iq.iqSquashedOperandsExamined        32413                       # Number of squashed operands that are examined and possibly removed from graph
system.cpu.iq.iqSquashedNonSpecRemoved             67                       # Number of squashed non-spec instructions that were removed
system.cpu.iq.issued_per_cycle::samples         36475                       # Number of insts issued each cycle
system.cpu.iq.issued_per_cycle::mean         0.982180                       # Number of insts issued each cycle
system.cpu.iq.issued_per_cycle::stdev        1.800888                       # Number of insts issued each cycle
system.cpu.iq.issued_per_cycle::underflows            0      0.00%      0.00% # Number of insts issued each cycle
system.cpu.iq.issued_per_cycle::0               24704     67.73%     67.73% # Number of insts issued each cycle
system.cpu.iq.issued_per_cycle::1                3379      9.26%     76.99% # Number of insts issued each cycle
system.cpu.iq.issued_per_cycle::2                2121      5.81%     82.81% # Number of insts issued each cycle
system.cpu.iq.issued_per_cycle::3                2101      5.76%     88.57% # Number of insts issued each cycle
system.cpu.iq.issued_per_cycle::4                1657      4.54%     93.11% # Number of insts issued each cycle
system.cpu.iq.issued_per_cycle::5                1114      3.05%     96.16% # Number of insts issued each cycle
system.cpu.iq.issued_per_cycle::6                 572      1.57%     97.73% # Number of insts issued each cycle
system.cpu.iq.issued_per_cycle::7                 345      0.95%     98.68% # Number of insts issued each cycle
system.cpu.iq.issued_per_cycle::8                 482      1.32%    100.00% # Number of insts issued each cycle
system.cpu.iq.issued_per_cycle::overflows            0      0.00%    100.00% # Number of insts issued each cycle
system.cpu.iq.issued_per_cycle::min_value            0                       # Number of insts issued each cycle
system.cpu.iq.issued_per_cycle::max_value            8                       # Number of insts issued each cycle
system.cpu.iq.issued_per_cycle::total           36475                       # Number of insts issued each cycle
system.cpu.iq.fu_full::No_OpClass                   0      0.00%      0.00% # attempts to use FU when none available
system.cpu.iq.fu_full::IntAlu                      33      4.87%      4.87% # attempts to use FU when none available
system.cpu.iq.fu_full::IntMult                    285     42.10%     46.97% # attempts to use FU when none available
system.cpu.iq.fu_full::IntDiv                       0      0.00%     46.97% # attempts to use FU when none available
system.cpu.iq.fu_full::FloatAdd                     0      0.00%     46.97% # attempts to use FU when none available
system.cpu.iq.fu_full::FloatCmp                     0      0.00%     46.97% # attempts to use FU when none available
system.cpu.iq.fu_full::FloatCvt                     0      0.00%     46.97% # attempts to use FU when none available
system.cpu.iq.fu_full::FloatMult                    0      0.00%     46.97% # attempts to use FU when none available
system.cpu.iq.fu_full::FloatDiv                     0      0.00%     46.97% # attempts to use FU when none available
system.cpu.iq.fu_full::FloatSqrt                    0      0.00%     46.97% # attempts to use FU when none available
system.cpu.iq.fu_full::SimdAdd                      0      0.00%     46.97% # attempts to use FU when none available
system.cpu.iq.fu_full::SimdAddAcc                   0      0.00%     46.97% # attempts to use FU when none available
system.cpu.iq.fu_full::SimdAlu                      0      0.00%     46.97% # attempts to use FU when none available
system.cpu.iq.fu_full::SimdCmp                      0      0.00%     46.97% # attempts to use FU when none available
system.cpu.iq.fu_full::SimdCvt                      0      0.00%     46.97% # attempts to use FU when none available
system.cpu.iq.fu_full::SimdMisc                     0      0.00%     46.97% # attempts to use FU when none available
system.cpu.iq.fu_full::SimdMult                     0      0.00%     46.97% # attempts to use FU when none available
system.cpu.iq.fu_full::SimdMultAcc                  0      0.00%     46.97% # attempts to use FU when none available
system.cpu.iq.fu_full::SimdShift                    0      0.00%     46.97% # attempts to use FU when none available
system.cpu.iq.fu_full::SimdShiftAcc                 0      0.00%     46.97% # attempts to use FU when none available
system.cpu.iq.fu_full::SimdSqrt                     0      0.00%     46.97% # attempts to use FU when none available
system.cpu.iq.fu_full::SimdFloatAdd                 0      0.00%     46.97% # attempts to use FU when none available
system.cpu.iq.fu_full::SimdFloatAlu                 0      0.00%     46.97% # attempts to use FU when none available
system.cpu.iq.fu_full::SimdFloatCmp                 0      0.00%     46.97% # attempts to use FU when none available
system.cpu.iq.fu_full::SimdFloatCvt                 0      0.00%     46.97% # attempts to use FU when none available
system.cpu.iq.fu_full::SimdFloatDiv                 0      0.00%     46.97% # attempts to use FU when none available
system.cpu.iq.fu_full::SimdFloatMisc                0      0.00%     46.97% # attempts to use FU when none available
system.cpu.iq.fu_full::SimdFloatMult                0      0.00%     46.97% # attempts to use FU when none available
system.cpu.iq.fu_full::SimdFloatMultAcc             0      0.00%     46.97% # attempts to use FU when none available
system.cpu.iq.fu_full::SimdFloatSqrt                0      0.00%     46.97% # attempts to use FU when none available
system.cpu.iq.fu_full::MemRead                    181     26.74%     73.71% # attempts to use FU when none available
system.cpu.iq.fu_full::MemWrite                   178     26.29%    100.00% # attempts to use FU when none available
system.cpu.iq.fu_full::IprAccess                    0      0.00%    100.00% # attempts to use FU when none available
system.cpu.iq.fu_full::InstPrefetch                 0      0.00%    100.00% # attempts to use FU when none available
system.cpu.iq.FU_type_0::No_OpClass                 0      0.00%      0.00% # Type of FU issued
system.cpu.iq.FU_type_0::IntAlu                 21867     61.04%     61.04% # Type of FU issued
system.cpu.iq.FU_type_0::IntMult                 1696      4.73%     65.77% # Type of FU issued
system.cpu.iq.FU_type_0::IntDiv                     0      0.00%     65.77% # Type of FU issued
system.cpu.iq.FU_type_0::FloatAdd                   0      0.00%     65.77% # Type of FU issued
system.cpu.iq.FU_type_0::FloatCmp                   0      0.00%     65.77% # Type of FU issued
system.cpu.iq.FU_type_0::FloatCvt                   0      0.00%     65.77% # Type of FU issued
system.cpu.iq.FU_type_0::FloatMult                  0      0.00%     65.77% # Type of FU issued
system.cpu.iq.FU_type_0::FloatDiv                   0      0.00%     65.77% # Type of FU issued
system.cpu.iq.FU_type_0::FloatSqrt                  0      0.00%     65.77% # Type of FU issued
system.cpu.iq.FU_type_0::SimdAdd                    0      0.00%     65.77% # Type of FU issued
system.cpu.iq.FU_type_0::SimdAddAcc                 0      0.00%     65.77% # Type of FU issued
system.cpu.iq.FU_type_0::SimdAlu                    0      0.00%     65.77% # Type of FU issued
system.cpu.iq.FU_type_0::SimdCmp                    0      0.00%     65.77% # Type of FU issued
system.cpu.iq.FU_type_0::SimdCvt                    0      0.00%     65.77% # Type of FU issued
system.cpu.iq.FU_type_0::SimdMisc                   0      0.00%     65.77% # Type of FU issued
system.cpu.iq.FU_type_0::SimdMult                   0      0.00%     65.77% # Type of FU issued
system.cpu.iq.FU_type_0::SimdMultAcc                0      0.00%     65.77% # Type of FU issued
system.cpu.iq.FU_type_0::SimdShift                  0      0.00%     65.77% # Type of FU issued
system.cpu.iq.FU_type_0::SimdShiftAcc               0      0.00%     65.77% # Type of FU issued
system.cpu.iq.FU_type_0::SimdSqrt                   0      0.00%     65.77% # Type of FU issued
system.cpu.iq.FU_type_0::SimdFloatAdd               0      0.00%     65.77% # Type of FU issued
system.cpu.iq.FU_type_0::SimdFloatAlu               0      0.00%     65.77% # Type of FU issued
system.cpu.iq.FU_type_0::SimdFloatCmp               0      0.00%     65.77% # Type of FU issued
system.cpu.iq.FU_type_0::SimdFloatCvt               0      0.00%     65.77% # Type of FU issued
system.cpu.iq.FU_type_0::SimdFloatDiv               0      0.00%     65.77% # Type of FU issued
system.cpu.iq.FU_type_0::SimdFloatMisc              3      0.01%     65.78% # Type of FU issued
system.cpu.iq.FU_type_0::SimdFloatMult              0      0.00%     65.78% # Type of FU issued
system.cpu.iq.FU_type_0::SimdFloatMultAcc            0      0.00%     65.78% # Type of FU issued
system.cpu.iq.FU_type_0::SimdFloatSqrt              0      0.00%     65.78% # Type of FU issued
system.cpu.iq.FU_type_0::MemRead                 7301     20.38%     86.16% # Type of FU issued
system.cpu.iq.FU_type_0::MemWrite                4958     13.84%    100.00% # Type of FU issued
system.cpu.iq.FU_type_0::IprAccess                  0      0.00%    100.00% # Type of FU issued
system.cpu.iq.FU_type_0::InstPrefetch               0      0.00%    100.00% # Type of FU issued
system.cpu.iq.FU_type_0::total                  35825                       # Type of FU issued
system.cpu.iq.rate                           0.521972                       # Inst issue rate
system.cpu.iq.fu_busy_cnt                         677                       # FU busy when requested
system.cpu.iq.fu_busy_rate                   0.018897                       # FU busy rate (busy events/executed inst)
system.cpu.iq.int_inst_queue_reads             108802                       # Number of integer instruction queue reads
system.cpu.iq.int_inst_queue_writes             53187                       # Number of integer instruction queue writes
system.cpu.iq.int_inst_queue_wakeup_accesses        33913                       # Number of integer instruction queue wakeup accesses
system.cpu.iq.fp_inst_queue_reads                  60                       # Number of floating instruction queue reads
system.cpu.iq.fp_inst_queue_writes                 28                       # Number of floating instruction queue writes
system.cpu.iq.fp_inst_queue_wakeup_accesses           28                       # Number of floating instruction queue wakeup accesses
system.cpu.iq.int_alu_accesses                  36470                       # Number of integer alu accesses
system.cpu.iq.fp_alu_accesses                      32                       # Number of floating point alu accesses
system.cpu.iew.lsq.thread0.forwLoads              113                       # Number of loads that had data forwarded from stores
system.cpu.iew.lsq.thread0.invAddrLoads             0                       # Number of loads ignored due to an invalid address
system.cpu.iew.lsq.thread0.squashedLoads         2706                       # Number of loads squashed
system.cpu.iew.lsq.thread0.ignoredResponses            3                       # Number of memory responses ignored because the instruction is squashed
system.cpu.iew.lsq.thread0.memOrderViolation           62                       # Number of memory ordering violations
system.cpu.iew.lsq.thread0.squashedStores         1351                       # Number of stores squashed
system.cpu.iew.lsq.thread0.invAddrSwpfs             0                       # Number of software prefetches ignored due to an invalid address
system.cpu.iew.lsq.thread0.blockedLoads             0                       # Number of blocked loads due to partial load-store forwarding
system.cpu.iew.lsq.thread0.rescheduledLoads          105                       # Number of loads that were rescheduled
system.cpu.iew.lsq.thread0.cacheBlocked            55                       # Number of times an access to memory failed due to the cache being blocked
system.cpu.iew.iewIdleCycles                        0                       # Number of cycles IEW is idle
system.cpu.iew.iewSquashCycles                    680                       # Number of cycles IEW is squashing
system.cpu.iew.iewBlockCycles                    1680                       # Number of cycles IEW is blocking
system.cpu.iew.iewUnblockCycles                   542                       # Number of cycles IEW is unblocking
system.cpu.iew.iewDispatchedInsts               41261                       # Number of instructions dispatched to IQ
system.cpu.iew.iewDispSquashedInsts               188                       # Number of squashed instructions skipped by dispatch
system.cpu.iew.iewDispLoadInsts                  7852                       # Number of dispatched load instructions
system.cpu.iew.iewDispStoreInsts                 5754                       # Number of dispatched store instructions
system.cpu.iew.iewDispNonSpecInsts                107                       # Number of dispatched non-speculative instructions
system.cpu.iew.iewIQFullEvents                     17                       # Number of times the IQ has become full, causing a stall
system.cpu.iew.iewLSQFullEvents                   514                       # Number of times the LSQ has become full, causing a stall
system.cpu.iew.memOrderViolationEvents             62                       # Number of memory order violations
system.cpu.iew.predictedTakenIncorrect            125                       # Number of branches that were predicted taken incorrectly
system.cpu.iew.predictedNotTakenIncorrect          555                       # Number of branches that were predicted not taken incorrectly
system.cpu.iew.branchMispredicts                  680                       # Number of branch mispredicts detected at execute
system.cpu.iew.iewExecutedInsts                 34999                       # Number of executed instructions
system.cpu.iew.iewExecLoadInsts                  7004                       # Number of load instructions executed
system.cpu.iew.iewExecSquashedInsts               826                       # Number of squashed instructions skipped in execute
system.cpu.iew.exec_swp                             0                       # number of swp insts executed
system.cpu.iew.exec_nop                             8                       # number of nop insts executed
system.cpu.iew.exec_refs                        11780                       # number of memory reference insts executed
system.cpu.iew.exec_branches                     4589                       # Number of branches executed
system.cpu.iew.exec_stores                       4776                       # Number of stores executed
system.cpu.iew.exec_rate                     0.509937                       # Inst execution rate
system.cpu.iew.wb_sent                          34222                       # cumulative count of insts sent to commit
system.cpu.iew.wb_count                         33941                       # cumulative count of insts written-back
system.cpu.iew.wb_producers                     19996                       # num instructions producing a value
system.cpu.iew.wb_consumers                     39053                       # num instructions consuming a value
system.cpu.iew.wb_penalized                         0                       # number of instrctions required to write to 'other' IQ
system.cpu.iew.wb_rate                       0.494522                       # insts written-back per cycle
system.cpu.iew.wb_fanout                     0.512022                       # average fanout of values written-back
system.cpu.iew.wb_penalized_rate                    0                       # fraction of instructions written-back that wrote to 'other' IQ
system.cpu.commit.commitSquashedInsts           11913                       # The number of squashed insts skipped by commit
system.cpu.commit.commitNonSpecStalls             175                       # The number of times commit has been forced to stall to communicate backwards
system.cpu.commit.branchMispredicts               626                       # The number of times a branch was mispredicted
system.cpu.commit.committed_per_cycle::samples        34579                       # Number of insts commited each cycle
system.cpu.commit.committed_per_cycle::mean     0.848810                       # Number of insts commited each cycle
system.cpu.commit.committed_per_cycle::stdev     1.913869                       # Number of insts commited each cycle
system.cpu.commit.committed_per_cycle::underflows            0      0.00%      0.00% # Number of insts commited each cycle
system.cpu.commit.committed_per_cycle::0        25623     74.10%     74.10% # Number of insts commited each cycle
system.cpu.commit.committed_per_cycle::1         3408      9.86%     83.96% # Number of insts commited each cycle
system.cpu.commit.committed_per_cycle::2         1397      4.04%     88.00% # Number of insts commited each cycle
system.cpu.commit.committed_per_cycle::3          539      1.56%     89.55% # Number of insts commited each cycle
system.cpu.commit.committed_per_cycle::4          886      2.56%     92.12% # Number of insts commited each cycle
system.cpu.commit.committed_per_cycle::5          933      2.70%     94.81% # Number of insts commited each cycle
system.cpu.commit.committed_per_cycle::6          392      1.13%     95.95% # Number of insts commited each cycle
system.cpu.commit.committed_per_cycle::7          237      0.69%     96.63% # Number of insts commited each cycle
system.cpu.commit.committed_per_cycle::8         1164      3.37%    100.00% # Number of insts commited each cycle
system.cpu.commit.committed_per_cycle::overflows            0      0.00%    100.00% # Number of insts commited each cycle
system.cpu.commit.committed_per_cycle::min_value            0                       # Number of insts commited each cycle
system.cpu.commit.committed_per_cycle::max_value            8                       # Number of insts commited each cycle
system.cpu.commit.committed_per_cycle::total        34579                       # Number of insts commited each cycle
system.cpu.commit.committedInsts                25255                       # Number of instructions committed
system.cpu.commit.committedOps                  29351                       # Number of ops (including micro ops) committed
system.cpu.commit.swp_count                         0                       # Number of s/w prefetches committed
system.cpu.commit.refs                           9549                       # Number of memory references committed
system.cpu.commit.loads                          5146                       # Number of loads committed
system.cpu.commit.membars                         107                       # Number of memory barriers committed
system.cpu.commit.branches                       3729                       # Number of branches committed
system.cpu.commit.fp_insts                         28                       # Number of committed floating point instructions.
system.cpu.commit.int_insts                     26090                       # Number of committed integer instructions.
system.cpu.commit.function_calls                  269                       # Number of function calls committed.
system.cpu.commit.op_class_0::No_OpClass            0      0.00%      0.00% # Class of committed instruction
system.cpu.commit.op_class_0::IntAlu            18116     61.72%     61.72% # Class of committed instruction
system.cpu.commit.op_class_0::IntMult            1683      5.73%     67.46% # Class of committed instruction
system.cpu.commit.op_class_0::IntDiv                0      0.00%     67.46% # Class of committed instruction
system.cpu.commit.op_class_0::FloatAdd              0      0.00%     67.46% # Class of committed instruction
system.cpu.commit.op_class_0::FloatCmp              0      0.00%     67.46% # Class of committed instruction
system.cpu.commit.op_class_0::FloatCvt              0      0.00%     67.46% # Class of committed instruction
system.cpu.commit.op_class_0::FloatMult             0      0.00%     67.46% # Class of committed instruction
system.cpu.commit.op_class_0::FloatDiv              0      0.00%     67.46% # Class of committed instruction
system.cpu.commit.op_class_0::FloatSqrt             0      0.00%     67.46% # Class of committed instruction
system.cpu.commit.op_class_0::SimdAdd               0      0.00%     67.46% # Class of committed instruction
system.cpu.commit.op_class_0::SimdAddAcc            0      0.00%     67.46% # Class of committed instruction
system.cpu.commit.op_class_0::SimdAlu               0      0.00%     67.46% # Class of committed instruction
system.cpu.commit.op_class_0::SimdCmp               0      0.00%     67.46% # Class of committed instruction
system.cpu.commit.op_class_0::SimdCvt               0      0.00%     67.46% # Class of committed instruction
system.cpu.commit.op_class_0::SimdMisc              0      0.00%     67.46% # Class of committed instruction
system.cpu.commit.op_class_0::SimdMult              0      0.00%     67.46% # Class of committed instruction
system.cpu.commit.op_class_0::SimdMultAcc            0      0.00%     67.46% # Class of committed instruction
system.cpu.commit.op_class_0::SimdShift             0      0.00%     67.46% # Class of committed instruction
system.cpu.commit.op_class_0::SimdShiftAcc            0      0.00%     67.46% # Class of committed instruction
system.cpu.commit.op_class_0::SimdSqrt              0      0.00%     67.46% # Class of committed instruction
system.cpu.commit.op_class_0::SimdFloatAdd            0      0.00%     67.46% # Class of committed instruction
system.cpu.commit.op_class_0::SimdFloatAlu            0      0.00%     67.46% # Class of committed instruction
system.cpu.commit.op_class_0::SimdFloatCmp            0      0.00%     67.46% # Class of committed instruction
system.cpu.commit.op_class_0::SimdFloatCvt            0      0.00%     67.46% # Class of committed instruction
system.cpu.commit.op_class_0::SimdFloatDiv            0      0.00%     67.46% # Class of committed instruction
system.cpu.commit.op_class_0::SimdFloatMisc            3      0.01%     67.47% # Class of committed instruction
system.cpu.commit.op_class_0::SimdFloatMult            0      0.00%     67.47% # Class of committed instruction
system.cpu.commit.op_class_0::SimdFloatMultAcc            0      0.00%     67.47% # Class of committed instruction
system.cpu.commit.op_class_0::SimdFloatSqrt            0      0.00%     67.47% # Class of committed instruction
system.cpu.commit.op_class_0::MemRead            5146     17.53%     85.00% # Class of committed instruction
system.cpu.commit.op_class_0::MemWrite           4403     15.00%    100.00% # Class of committed instruction
system.cpu.commit.op_class_0::IprAccess             0      0.00%    100.00% # Class of committed instruction
system.cpu.commit.op_class_0::InstPrefetch            0      0.00%    100.00% # Class of committed instruction
system.cpu.commit.op_class_0::total             29351                       # Class of committed instruction
system.cpu.commit.bw_lim_events                  1164                       # number cycles where commit BW limit reached
system.cpu.rob.rob_reads                        74496                       # The number of ROB reads
system.cpu.rob.rob_writes                       84437                       # The number of ROB writes
system.cpu.timesIdled                             382                       # Number of times that the entire CPU went into an idle state and unscheduled itself
system.cpu.idleCycles                           32159                       # Total number of cycles that the CPU has spent unscheduled due to idling
system.cpu.committedInsts                       25255                       # Number of Instructions Simulated
system.cpu.committedOps                         29351                       # Number of Ops (including micro ops) Simulated
system.cpu.cpi                               2.717640                       # CPI: Cycles Per Instruction
system.cpu.cpi_total                         2.717640                       # CPI: Total CPI of All Threads
system.cpu.ipc                               0.367966                       # IPC: Instructions Per Cycle
system.cpu.ipc_total                         0.367966                       # IPC: Total IPC of All Threads
system.cpu.int_regfile_reads                    43264                       # number of integer regfile reads
system.cpu.int_regfile_writes                   22591                       # number of integer regfile writes
system.cpu.fp_regfile_reads                        22                       # number of floating regfile reads
system.cpu.fp_regfile_writes                        6                       # number of floating regfile writes
system.cpu.cc_regfile_reads                    123660                       # number of cc regfile reads
system.cpu.cc_regfile_writes                    15643                       # number of cc regfile writes
system.cpu.misc_regfile_reads                   12530                       # number of misc regfile reads
system.cpu.misc_regfile_writes                    106                       # number of misc regfile writes
system.cpu.dcache.tags.replacements                16                       # number of replacements
system.cpu.dcache.tags.tagsinuse           165.310525                       # Cycle average of tags in use
system.cpu.dcache.tags.total_refs                8982                       # Total number of references to valid blocks.
[...]
system.cpu.dcache.ReadReq_mshr_misses::total          155                       # number of ReadReq MSHR misses
system.cpu.dcache.WriteReq_mshr_misses::cpu.data          152                       # number of WriteReq MSHR misses
system.cpu.dcache.WriteReq_mshr_misses::total          152                       # number of WriteReq MSHR misses
system.cpu.dcache.SoftPFReq_mshr_misses::cpu.data            1                       # number of SoftPFReq MSHR misses
system.cpu.dcache.SoftPFReq_mshr_misses::total            1                       # number of SoftPFReq MSHR misses
system.cpu.dcache.LoadLockedReq_mshr_misses::cpu.data            2                       # number of LoadLockedReq MSHR misses
system.cpu.dcache.LoadLockedReq_mshr_misses::total            2                       # number of LoadLockedReq MSHR misses
system.cpu.dcache.demand_mshr_misses::cpu.data          307                       # number of demand (read+write) MSHR misses
system.cpu.dcache.demand_mshr_misses::total          307                       # number of demand (read+write) MSHR misses
system.cpu.dcache.overall_mshr_misses::cpu.data          308                       # number of overall MSHR misses
system.cpu.dcache.overall_mshr_misses::total          308                       # number of overall MSHR misses
system.cpu.dcache.ReadReq_mshr_miss_latency::cpu.data      9794250                       # number of ReadReq MSHR miss cycles
system.cpu.dcache.ReadReq_mshr_miss_latency::total      9794250                       # number of ReadReq MSHR miss cycles
system.cpu.dcache.WriteReq_mshr_miss_latency::cpu.data      8617495                       # number of WriteReq MSHR miss cycles
system.cpu.dcache.WriteReq_mshr_miss_latency::total      8617495                       # number of WriteReq MSHR miss cycles
system.cpu.dcache.SoftPFReq_mshr_miss_latency::cpu.data        52250                       # number of SoftPFReq MSHR miss cycles
system.cpu.dcache.SoftPFReq_mshr_miss_latency::total        52250                       # number of SoftPFReq MSHR miss cycles
system.cpu.dcache.LoadLockedReq_mshr_miss_latency::cpu.data       134250                       # number of LoadLockedReq MSHR miss cycles
system.cpu.dcache.LoadLockedReq_mshr_miss_latency::total       134250                       # number of LoadLockedReq MSHR miss cycles
system.cpu.dcache.demand_mshr_miss_latency::cpu.data     18411745                       # number of demand (read+write) MSHR miss cycles
system.cpu.dcache.demand_mshr_miss_latency::total     18411745                       # number of demand (read+write) MSHR miss cycles
system.cpu.dcache.overall_mshr_miss_latency::cpu.data     18463995                       # number of overall MSHR miss cycles
system.cpu.dcache.overall_mshr_miss_latency::total     18463995                       # number of overall MSHR miss cycles
system.cpu.dcache.ReadReq_mshr_miss_rate::cpu.data     0.023488                       # mshr miss rate for ReadReq accesses
system.cpu.dcache.ReadReq_mshr_miss_rate::total     0.023488                       # mshr miss rate for ReadReq accesses
system.cpu.dcache.WriteReq_mshr_miss_rate::cpu.data     0.035739                       # mshr miss rate for WriteReq accesses
system.cpu.dcache.WriteReq_mshr_miss_rate::total     0.035739                       # mshr miss rate for WriteReq accesses
system.cpu.dcache.SoftPFReq_mshr_miss_rate::cpu.data     0.166667                       # mshr miss rate for SoftPFReq accesses
system.cpu.dcache.SoftPFReq_mshr_miss_rate::total     0.166667                       # mshr miss rate for SoftPFReq accesses
system.cpu.dcache.LoadLockedReq_mshr_miss_rate::cpu.data     0.038462                       # mshr miss rate for LoadLockedReq accesses
system.cpu.dcache.LoadLockedReq_mshr_miss_rate::total     0.038462                       # mshr miss rate for LoadLockedReq accesses
system.cpu.dcache.demand_mshr_miss_rate::cpu.data     0.028290                       # mshr miss rate for demand accesses
system.cpu.dcache.demand_mshr_miss_rate::total     0.028290                       # mshr miss rate for demand accesses
system.cpu.dcache.overall_mshr_miss_rate::cpu.data     0.028366                       # mshr miss rate for overall accesses
system.cpu.dcache.overall_mshr_miss_rate::total     0.028366                       # mshr miss rate for overall accesses
system.cpu.dcache.ReadReq_avg_mshr_miss_latency::cpu.data 63188.709677                       # average ReadReq mshr miss latency
system.cpu.dcache.ReadReq_avg_mshr_miss_latency::total 63188.709677                       # average ReadReq mshr miss latency
system.cpu.dcache.WriteReq_avg_mshr_miss_latency::cpu.data 56694.046053                       # average WriteReq mshr miss latency
system.cpu.dcache.WriteReq_avg_mshr_miss_latency::total 56694.046053                       # average WriteReq mshr miss latency
system.cpu.dcache.SoftPFReq_avg_mshr_miss_latency::cpu.data        52250                       # average SoftPFReq mshr miss latency
system.cpu.dcache.SoftPFReq_avg_mshr_miss_latency::total        52250                       # average SoftPFReq mshr miss latency
system.cpu.dcache.LoadLockedReq_avg_mshr_miss_latency::cpu.data        67125                       # average LoadLockedReq mshr miss latency
system.cpu.dcache.LoadLockedReq_avg_mshr_miss_latency::total        67125                       # average LoadLockedReq mshr miss latency
system.cpu.dcache.demand_avg_mshr_miss_latency::cpu.data 59973.110749                       # average overall mshr miss latency
system.cpu.dcache.demand_avg_mshr_miss_latency::total 59973.110749                       # average overall mshr miss latency
system.cpu.dcache.overall_avg_mshr_miss_latency::cpu.data 59948.035714                       # average overall mshr miss latency
system.cpu.dcache.overall_avg_mshr_miss_latency::total 59948.035714                       # average overall mshr miss latency
system.cpu.dcache.no_allocate_misses                0                       # Number of misses that were no-allocate
system.cpu.icache.tags.replacements               200                       # number of replacements
system.cpu.icache.tags.tagsinuse           238.241040                       # Cycle average of tags in use
system.cpu.icache.tags.total_refs                5097                       # Total number of references to valid blocks.
system.cpu.icache.tags.sampled_refs               580                       # Sample count of references to valid blocks.
system.cpu.icache.tags.avg_refs              8.787931                       # Average number of references to valid blocks.
system.cpu.icache.tags.warmup_cycle                 0                       # Cycle when the warmup percentage was hit.
system.cpu.icache.tags.occ_blocks::cpu.inst   238.241040                       # Average occupied blocks per requestor
system.cpu.icache.tags.occ_percent::cpu.inst     0.465315                       # Average percentage of cache occupancy
system.cpu.icache.tags.occ_percent::total     0.465315                       # Average percentage of cache occupancy
system.cpu.icache.tags.occ_task_id_blocks::1024          380                       # Occupied blocks per task id
system.cpu.icache.tags.age_task_id_blocks_1024::0          138                       # Occupied blocks per task id
system.cpu.icache.tags.age_task_id_blocks_1024::1          242                       # Occupied blocks per task id
system.cpu.icache.tags.occ_task_id_percent::1024     0.742188                       # Percentage of cache occupancy per task id
system.cpu.icache.tags.tag_accesses             12318                       # Number of tag accesses
system.cpu.icache.tags.data_accesses            12318                       # Number of data accesses
system.cpu.icache.ReadReq_hits::cpu.inst         5097                       # number of ReadReq hits
system.cpu.icache.ReadReq_hits::total            5097                       # number of ReadReq hits
system.cpu.icache.demand_hits::cpu.inst          5097                       # number of demand (read+write) hits
system.cpu.icache.demand_hits::total             5097                       # number of demand (read+write) hits
system.cpu.icache.overall_hits::cpu.inst         5097                       # number of overall hits
system.cpu.icache.overall_hits::total            5097                       # number of overall hits
system.cpu.icache.ReadReq_misses::cpu.inst          772                       # number of ReadReq misses
system.cpu.icache.ReadReq_misses::total           772                       # number of ReadReq misses
system.cpu.icache.demand_misses::cpu.inst          772                       # number of demand (read+write) misses
system.cpu.icache.demand_misses::total            772                       # number of demand (read+write) misses
system.cpu.icache.overall_misses::cpu.inst          772                       # number of overall misses
system.cpu.icache.overall_misses::total           772                       # number of overall misses
system.cpu.icache.ReadReq_miss_latency::cpu.inst     41810250                       # number of ReadReq miss cycles
system.cpu.icache.ReadReq_miss_latency::total     41810250                       # number of ReadReq miss cycles
system.cpu.icache.demand_miss_latency::cpu.inst     41810250                       # number of demand (read+write) miss cycles
system.cpu.icache.demand_miss_latency::total     41810250                       # number of demand (read+write) miss cycles
system.cpu.icache.overall_miss_latency::cpu.inst     41810250                       # number of overall miss cycles
system.cpu.icache.overall_miss_latency::total     41810250                       # number of overall miss cycles
system.cpu.icache.ReadReq_accesses::cpu.inst         5869                       # number of ReadReq accesses(hits+misses)
system.cpu.icache.ReadReq_accesses::total         5869                       # number of ReadReq accesses(hits+misses)
system.cpu.icache.demand_accesses::cpu.inst         5869                       # number of demand (read+write) accesses
system.cpu.icache.demand_accesses::total         5869                       # number of demand (read+write) accesses
system.cpu.icache.overall_accesses::cpu.inst         5869                       # number of overall (read+write) accesses
system.cpu.icache.overall_accesses::total         5869                       # number of overall (read+write) accesses
system.cpu.icache.ReadReq_miss_rate::cpu.inst     0.131539                       # miss rate for ReadReq accesses
system.cpu.icache.ReadReq_miss_rate::total     0.131539                       # miss rate for ReadReq accesses
system.cpu.icache.demand_miss_rate::cpu.inst     0.131539                       # miss rate for demand accesses
system.cpu.icache.demand_miss_rate::total     0.131539                       # miss rate for demand accesses
system.cpu.icache.overall_miss_rate::cpu.inst     0.131539                       # miss rate for overall accesses
system.cpu.icache.overall_miss_rate::total     0.131539                       # miss rate for overall accesses
system.cpu.icache.ReadReq_avg_miss_latency::cpu.inst 54158.354922                       # average ReadReq miss latency
system.cpu.icache.ReadReq_avg_miss_latency::total 54158.354922                       # average ReadReq miss latency
system.cpu.icache.demand_avg_miss_latency::cpu.inst 54158.354922                       # average overall miss latency
system.cpu.icache.demand_avg_miss_latency::total 54158.354922                       # average overall miss latency
system.cpu.icache.overall_avg_miss_latency::cpu.inst 54158.354922                       # average overall miss latency
system.cpu.icache.overall_avg_miss_latency::total 54158.354922                       # average overall miss latency
system.cpu.icache.blocked_cycles::no_mshrs          259                       # number of cycles access was blocked
system.cpu.icache.blocked_cycles::no_targets            0                       # number of cycles access was blocked
system.cpu.icache.blocked::no_mshrs                 5                       # number of cycles access was blocked
system.cpu.icache.blocked::no_targets               0                       # number of cycles access was blocked
system.cpu.icache.avg_blocked_cycles::no_mshrs    51.800000                       # average number of cycles each access was blocked
system.cpu.icache.avg_blocked_cycles::no_targets          nan                       # average number of cycles each access was blocked
system.cpu.icache.fast_writes                       0                       # number of fast writes performed
system.cpu.icache.cache_copies                      0                       # number of cache copies performed
system.cpu.icache.ReadReq_mshr_hits::cpu.inst          191                       # number of ReadReq MSHR hits
system.cpu.icache.ReadReq_mshr_hits::total          191                       # number of ReadReq MSHR hits
system.cpu.icache.demand_mshr_hits::cpu.inst          191                       # number of demand (read+write) MSHR hits
system.cpu.icache.demand_mshr_hits::total          191                       # number of demand (read+write) MSHR hits
system.cpu.icache.overall_mshr_hits::cpu.inst          191                       # number of overall MSHR hits
system.cpu.icache.overall_mshr_hits::total          191                       # number of overall MSHR hits
system.cpu.icache.ReadReq_mshr_misses::cpu.inst          581                       # number of ReadReq MSHR misses
system.cpu.icache.ReadReq_mshr_misses::total          581                       # number of ReadReq MSHR misses
system.cpu.icache.demand_mshr_misses::cpu.inst          581                       # number of demand (read+write) MSHR misses
system.cpu.icache.demand_mshr_misses::total          581                       # number of demand (read+write) MSHR misses
system.cpu.icache.overall_mshr_misses::cpu.inst          581                       # number of overall MSHR misses
system.cpu.icache.overall_mshr_misses::total          581                       # number of overall MSHR misses
system.cpu.icache.ReadReq_mshr_miss_latency::cpu.inst     32167500                       # number of ReadReq MSHR miss cycles
system.cpu.icache.ReadReq_mshr_miss_latency::total     32167500                       # number of ReadReq MSHR miss cycles
system.cpu.icache.demand_mshr_miss_latency::cpu.inst     32167500                       # number of demand (read+write) MSHR miss cycles
system.cpu.icache.demand_mshr_miss_latency::total     32167500                       # number of demand (read+write) MSHR miss cycles
system.cpu.icache.overall_mshr_miss_latency::cpu.inst     32167500                       # number of overall MSHR miss cycles
system.cpu.icache.overall_mshr_miss_latency::total     32167500                       # number of overall MSHR miss cycles
system.cpu.icache.ReadReq_mshr_miss_rate::cpu.inst     0.098995                       # mshr miss rate for ReadReq accesses
system.cpu.icache.ReadReq_mshr_miss_rate::total     0.098995                       # mshr miss rate for ReadReq accesses
system.cpu.icache.demand_mshr_miss_rate::cpu.inst     0.098995                       # mshr miss rate for demand accesses
system.cpu.icache.demand_mshr_miss_rate::total     0.098995                       # mshr miss rate for demand accesses
system.cpu.icache.overall_mshr_miss_rate::cpu.inst     0.098995                       # mshr miss rate for overall accesses
system.cpu.icache.overall_mshr_miss_rate::total     0.098995                       # mshr miss rate for overall accesses
system.cpu.icache.ReadReq_avg_mshr_miss_latency::cpu.inst 55365.748709                       # average ReadReq mshr miss latency
system.cpu.icache.ReadReq_avg_mshr_miss_latency::total 55365.748709                       # average ReadReq mshr miss latency
system.cpu.icache.demand_avg_mshr_miss_latency::cpu.inst 55365.748709                       # average overall mshr miss latency
system.cpu.icache.demand_avg_mshr_miss_latency::total 55365.748709                       # average overall mshr miss latency
system.cpu.icache.overall_avg_mshr_miss_latency::cpu.inst 55365.748709                       # average overall mshr miss latency
system.cpu.icache.overall_avg_mshr_miss_latency::total 55365.748709                       # average overall mshr miss latency
system.cpu.icache.no_allocate_misses                0                       # Number of misses that were no-allocate
system.membus.trans_dist::ReadReq                 739                       # Transaction distribution
system.membus.trans_dist::ReadResp                738                       # Transaction distribution
system.membus.trans_dist::Writeback                 4                       # Transaction distribution
system.membus.trans_dist::ReadExReq               152                       # Transaction distribution
system.membus.trans_dist::ReadExResp              152                       # Transaction distribution
system.membus.pkt_count_system.cpu.icache.mem_side::system.mem_ctrls.port         1161                       # Packet count per connected master and slave (bytes)
system.membus.pkt_count_system.cpu.dcache.mem_side::system.mem_ctrls.port          624                       # Packet count per connected master and slave (bytes)
system.membus.pkt_count::total                   1785                       # Packet count per connected master and slave (bytes)
system.membus.pkt_size_system.cpu.icache.mem_side::system.mem_ctrls.port        37120                       # Cumulative packet size per connected master and slave (bytes)
system.membus.pkt_size_system.cpu.dcache.mem_side::system.mem_ctrls.port        20096                       # Cumulative packet size per connected master and slave (bytes)
system.membus.pkt_size::total                   57216                       # Cumulative packet size per connected master and slave (bytes)
system.membus.snoops                                0                       # Total snoops (count)
system.membus.snoop_fanout::samples               895                       # Request fanout histogram
system.membus.snoop_fanout::mean                    1                       # Request fanout histogram
system.membus.snoop_fanout::stdev                   0                       # Request fanout histogram
system.membus.snoop_fanout::underflows              0      0.00%      0.00% # Request fanout histogram
system.membus.snoop_fanout::0                       0      0.00%      0.00% # Request fanout histogram
system.membus.snoop_fanout::1                     895    100.00%    100.00% # Request fanout histogram
system.membus.snoop_fanout::2                       0      0.00%    100.00% # Request fanout histogram
system.membus.snoop_fanout::overflows               0      0.00%    100.00% # Request fanout histogram
system.membus.snoop_fanout::min_value               1                       # Request fanout histogram
system.membus.snoop_fanout::max_value               1                       # Request fanout histogram
system.membus.snoop_fanout::total                 895                       # Request fanout histogram
system.membus.reqLayer0.occupancy             1111500                       # Layer occupancy (ticks)
system.membus.reqLayer0.utilization               3.2                       # Layer utilization (%)
system.membus.respLayer1.occupancy            3082000                       # Layer occupancy (ticks)
system.membus.respLayer1.utilization              9.0                       # Layer utilization (%)
system.membus.respLayer2.occupancy            1661750                       # Layer occupancy (ticks)
system.membus.respLayer2.utilization              4.8                       # Layer utilization (%)

---------- End Simulation Statistics   ----------
